data_image0
_chemical_formula_structural       OEu2OBO4B
_chemical_formula_sum              "O6 Eu2 B2"
_cell_length_a       4.038862139494551
_cell_length_b       5.115667930712997
_cell_length_c       6.348837375640869
_cell_angle_alpha    89.955524311075
_cell_angle_beta     108.76687628377289
_cell_angle_gamma    89.87574087211779

_space_group_name_H-M_alt    "P 1"
_space_group_IT_number       1

loop_
  _space_group_symop_operation_xyz
  'x, y, z'

loop_
  _atom_site_type_symbol
  _atom_site_label
  _atom_site_symmetry_multiplicity
  _atom_site_fract_x
  _atom_site_fract_y
  _atom_site_fract_z
  _atom_site_occupancy
  O   O1        1.0  0.20594486594200134  0.06386757642030716  0.599301815032959  1.0000
  Eu  Eu1       1.0  0.7151870131492615  0.33203524351119995  0.6472755074501038  1.0000
  Eu  Eu2       1.0  0.04351199418306351  0.8330367803573608  0.20936016738414764  1.0000
  O   O2        1.0  0.20546239614486694  0.6007225513458252  0.5977343916893005  1.0000
  B   B1        1.0  0.13528579473495483  0.8327875137329102  0.686281681060791  1.0000
  O   O3        1.0  0.9432749152183533  0.8326435685157776  0.8277251124382019  1.0000
  O   O4        1.0  0.8151167631149292  0.3327659070491791  0.02867506630718708  1.0000
  O   O5        1.0  0.5523118376731873  0.5648933053016663  0.25736531615257263  1.0000
  O   O6        1.0  0.5526102185249329  0.10077693313360216  0.25785690546035767  1.0000
  B   B2        1.0  0.6222084164619446  0.33215734362602234  0.16964514553546906  1.0000
