data_image0
_chemical_formula_structural       Fe3OFeOFeOFOF3OFFeF2
_chemical_formula_sum              "Fe6 O5 F7"
_cell_length_a       5.287294831223487
_cell_length_b       5.706701346138824
_cell_length_c       7.835794448852539
_cell_angle_alpha    110.89954537365682
_cell_angle_beta     101.21732466138182
_cell_angle_gamma    91.65993671978353

_space_group_name_H-M_alt    "P 1"
_space_group_IT_number       1

loop_
  _space_group_symop_operation_xyz
  'x, y, z'

loop_
  _atom_site_type_symbol
  _atom_site_label
  _atom_site_symmetry_multiplicity
  _atom_site_fract_x
  _atom_site_fract_y
  _atom_site_fract_z
  _atom_site_occupancy
  Fe  Fe1       1.0  0.35573017597198486  0.5644307732582092  0.8422929644584657  1.0000
  Fe  Fe2       1.0  0.9837841391563416  0.5093087553977966  0.149896502494812  1.0000
  Fe  Fe3       1.0  0.8794289827346802  0.8730394244194031  0.8817631602287294  1.0000
  O   O1        1.0  0.0869922786951065  0.6563096046447754  0.9839056730270387  1.0000
  Fe  Fe4       1.0  0.31000620126724243  0.9407578706741333  0.5223344564437866  1.0000
  O   O2        1.0  0.19054892659187317  0.2478078603744507  0.6598387360572815  1.0000
  Fe  Fe5       1.0  0.4555169641971588  0.17057529091835022  0.16412042081356049  1.0000
  O   O3        1.0  0.46764540672302246  0.06739603728055954  0.3690021336078644  1.0000
  F   F1        1.0  0.32313039898872375  0.5702976584434509  0.3411110043525696  1.0000
  O   O4        1.0  0.576343834400177  0.8934581875801086  0.987681269645691  1.0000
  F   F2        1.0  0.6803964376449585  0.9947558045387268  0.6804134249687195  1.0000
  F   F3        1.0  0.9549322724342346  0.8480421304702759  0.3442492187023163  1.0000
  F   F4        1.0  0.15740951895713806  0.7634167671203613  0.6845811605453491  1.0000
  O   O5        1.0  0.0991969183087349  0.1774013638496399  0.03965831175446511  1.0000
  F   F5        1.0  0.5923226475715637  0.4175819158554077  0.02037629298865795  1.0000
  Fe  Fe6       1.0  0.8201035261154175  0.2181967943906784  0.5294590592384338  1.0000
  F   F6        1.0  0.6598625183105469  0.5334570407867432  0.6976231336593628  1.0000
  F   F7        1.0  0.811103105545044  0.36460113525390625  0.3095703721046448  1.0000
