data_image0
_chemical_formula_structural       Gd2O2GdOGdO3
_chemical_formula_sum              "Gd4 O6"
_cell_length_a       5.932644927669271
_cell_length_b       5.9323291564389145
_cell_length_c       6.167275905609131
_cell_angle_alpha    61.24981787255576
_cell_angle_beta     61.25324005431191
_cell_angle_gamma    59.995778187409634

_space_group_name_H-M_alt    "P 1"
_space_group_IT_number       1

loop_
  _space_group_symop_operation_xyz
  'x, y, z'

loop_
  _atom_site_type_symbol
  _atom_site_label
  _atom_site_symmetry_multiplicity
  _atom_site_fract_x
  _atom_site_fract_y
  _atom_site_fract_z
  _atom_site_occupancy
  Gd  Gd1       1.0  0.22704444825649261  0.3567375838756562  0.07281865924596786  1.0000
  Gd  Gd2       1.0  0.9457901120185852  0.07578257471323015  0.9172332286834718  1.0000
  O   O1        1.0  0.04563498869538303  0.4663116335868836  0.7450715899467469  1.0000
  O   O2        1.0  0.6269527077674865  0.1753623336553574  0.7446967363357545  1.0000
  Gd  Gd3       1.0  0.4459525942802429  0.5752477645874023  0.4171113073825837  1.0000
  O   O3        1.0  0.12678872048854822  0.9661215543746948  0.2449608147144318  1.0000
  Gd  Gd4       1.0  0.7271588444709777  0.8570682406425476  0.5718035101890566  1.0000
  O   O4        1.0  0.5450291633605957  0.2570146918296814  0.24481320381164554  1.0000
  O   O5        1.0  0.8360782265663147  0.6757538318634033  0.24488586187362674  1.0000
  O   O6        1.0  0.33594125509262085  0.757071077823639  0.7448245882987977  1.0000
