data_image0
_chemical_formula_structural       OCaEuSbEu
_chemical_formula_sum              "O1 Ca1 Eu2 Sb1"
_cell_length_a       4.9497415640412905
_cell_length_b       4.9516877823067365
_cell_length_c       4.864303112030029
_cell_angle_alpha    90.06126246736054
_cell_angle_beta     90.10793997927276
_cell_angle_gamma    90.05429568229285

_space_group_name_H-M_alt    "P 1"
_space_group_IT_number       1

loop_
  _space_group_symop_operation_xyz
  'x, y, z'

loop_
  _atom_site_type_symbol
  _atom_site_label
  _atom_site_symmetry_multiplicity
  _atom_site_fract_x
  _atom_site_fract_y
  _atom_site_fract_z
  _atom_site_occupancy
  O   O1        1.0  0.083382248878479  0.5818372368812562  0.2280113846063614  1.0000
  Ca  Ca1       1.0  0.0837690457701683  0.5818871855735779  0.7279468178749084  1.0000
  Eu  Eu1       1.0  0.583560585975647  0.5818726420402527  0.22785227000713348  1.0000
  Sb  Sb1       1.0  0.583646297454834  0.08175890892744064  0.7278929352760315  1.0000
  Eu  Eu2       1.0  0.0835743397474289  0.08194345235824585  0.22789408266544342  1.0000
