data_image0
_chemical_formula_structural       HFe3H3FeH2
_chemical_formula_sum              "H6 Fe4"
_cell_length_a       4.42030294264536
_cell_length_b       4.429882464730996
_cell_length_c       4.435127258300781
_cell_angle_alpha    99.95139653713541
_cell_angle_beta     99.67103758250542
_cell_angle_gamma    120.13270015020338

_space_group_name_H-M_alt    "P 1"
_space_group_IT_number       1

loop_
  _space_group_symop_operation_xyz
  'x, y, z'

loop_
  _atom_site_type_symbol
  _atom_site_label
  _atom_site_symmetry_multiplicity
  _atom_site_fract_x
  _atom_site_fract_y
  _atom_site_fract_z
  _atom_site_occupancy
  H   H1        1.0  0.4422001540660858  0.13758173584938052  0.682050883769989  1.0000
  Fe  Fe1       1.0  0.689569890499115  0.38817787170410156  0.43958383798599243  1.0000
  Fe  Fe2       1.0  0.521223783493042  0.5576217174530029  0.9387176036834717  1.0000
  Fe  Fe3       1.0  0.3605746030807495  0.7188464999198914  0.4393204152584076  1.0000
  H   H2        1.0  0.10380878299474722  0.4718070030212403  0.6895387768745422  1.0000
  H   H3        1.0  0.7708113193511963  0.8099254369735718  0.6952434182167053  1.0000
  H   H4        1.0  0.941940426826477  0.6355499625205994  0.19677409529685974  1.0000
  Fe  Fe4       1.0  0.8505319356918335  0.22724144160747528  0.9394692182540894  1.0000
  H   H5        1.0  0.26924562454223633  0.3083693385124207  0.18378575146198273  1.0000
  H   H6        1.0  0.6065093874931335  0.9742099642753602  0.18905992805957794  1.0000
