data_image0
_chemical_formula_structural       Fe3H2FeH6
_chemical_formula_sum              "Fe4 H8"
_cell_length_a       4.079818624898395
_cell_length_b       4.082571638846134
_cell_length_c       5.009448528289795
_cell_angle_alpha    114.11836142318785
_cell_angle_beta     114.0458893928352
_cell_angle_gamma    89.93424059791207

_space_group_name_H-M_alt    "P 1"
_space_group_IT_number       1

loop_
  _space_group_symop_operation_xyz
  'x, y, z'

loop_
  _atom_site_type_symbol
  _atom_site_label
  _atom_site_symmetry_multiplicity
  _atom_site_fract_x
  _atom_site_fract_y
  _atom_site_fract_z
  _atom_site_occupancy
  Fe  Fe1       1.0  0.754740834236145  0.9926995635032654  0.5597261190414429  1.0000
  Fe  Fe2       1.0  0.5049451589584351  0.24294395744800568  0.060118675231933594  1.0000
  Fe  Fe3       1.0  0.004801888484507799  0.7430245280265808  0.059659410268068314  1.0000
  H   H1        1.0  0.6253930926322937  0.8642254471778869  0.8071058392524719  1.0000
  H   H2        1.0  0.8841901421546936  0.6164555549621582  0.3131062984466553  1.0000
  Fe  Fe4       1.0  0.25482821464538574  0.492766797542572  0.5602277517318726  1.0000
  H   H3        1.0  0.13095031678676605  0.8642601370811462  0.806572437286377  1.0000
  H   H4        1.0  0.37811022996902466  0.12212825566530228  0.3125298321247101  1.0000
  H   H5        1.0  0.8837231993675232  0.12219835072755814  0.312910795211792  1.0000
  H   H6        1.0  0.1315934658050537  0.36877328157424927  0.8069804906845093  1.0000
  H   H7        1.0  0.6256771683692932  0.36847835779190063  0.8066525459289551  1.0000
  H   H8        1.0  0.3788466155529022  0.6166975498199463  0.31340041756629944  1.0000
