data_image0
_chemical_formula_structural       SiOFeNiFeONi2O4FeSiO6
_chemical_formula_sum              "Si2 O12 Fe3 Ni3"
_cell_length_a       5.190290385932073
_cell_length_b       5.007436890212806
_cell_length_c       9.202072143554688
_cell_angle_alpha    84.28748501105717
_cell_angle_beta     79.906526229294
_cell_angle_gamma    64.02954696649998

_space_group_name_H-M_alt    "P 1"
_space_group_IT_number       1

loop_
  _space_group_symop_operation_xyz
  'x, y, z'

loop_
  _atom_site_type_symbol
  _atom_site_label
  _atom_site_symmetry_multiplicity
  _atom_site_fract_x
  _atom_site_fract_y
  _atom_site_fract_z
  _atom_site_occupancy
  Si  Si1       1.0  0.3256695568561554  0.3105887472629547  0.6361091136932373  1.0000
  O   O1        1.0  0.02428043819963932  0.9372581243515016  0.26378074288368225  1.0000
  Fe  Fe1       1.0  0.7090724110603333  0.32829833030700684  0.360053688287735  1.0000
  Ni  Ni1       1.0  0.5011706948280334  0.5846465229988098  0.07759702950716019  1.0000
  Fe  Fe2       1.0  0.3346862494945526  0.9858903288841248  0.3614061176776886  1.0000
  O   O2        1.0  0.5818256735801697  0.9299126863479615  0.9893171787261963  1.0000
  Ni  Ni2       1.0  0.9539746046066284  0.7205982208251953  0.48345887660980225  1.0000
  Ni  Ni3       1.0  0.22681483626365662  0.2720637619495392  0.918922483921051  1.0000
  O   O3        1.0  0.4972028434276581  0.2333990931510925  0.21922144293785095  1.0000
  O   O4        1.0  0.21721243858337402  0.06301937252283096  0.7416248321533203  1.0000
  O   O5        1.0  0.5515478253364563  0.2951865792274475  0.7495616674423218  1.0000
  O   O6        1.0  0.1173812597990036  0.6678828597068787  0.010470425710082054  1.0000
  Fe  Fe3       1.0  0.8988221287727356  0.9683396220207213  0.820160984992981  1.0000
  Si  Si2       1.0  0.8099819421768188  0.935731828212738  0.1200176253914833  1.0000
  O   O7        1.0  0.015337517485022545  0.3101387321949005  0.46343570947647095  1.0000
  O   O8        1.0  0.009556037373840809  0.6227840185165405  0.7011508345603943  1.0000
  O   O9        1.0  0.8630557060241699  0.22119009494781494  0.0031828614883124707  1.0000
  O   O10       1.0  0.5699265003204346  0.05142740160226822  0.5016644597053528  1.0000
  O   O11       1.0  0.6898517608642578  0.6815752983093262  0.2348647117614746  1.0000
  O   O12       1.0  0.3675927519798279  0.603846549987793  0.4835457503795624  1.0000
