data_image0
_chemical_formula_structural       FeNi2FeNiHNiH3
_chemical_formula_sum              "Fe2 Ni4 H4"
_cell_length_a       2.6061145573439672
_cell_length_b       5.270252271011278
_cell_length_c       5.787686347961426
_cell_angle_alpha    103.35920378638004
_cell_angle_beta     102.99983864984777
_cell_angle_gamma    90.02432506179868

_space_group_name_H-M_alt    "P 1"
_space_group_IT_number       1

loop_
  _space_group_symop_operation_xyz
  'x, y, z'

loop_
  _atom_site_type_symbol
  _atom_site_label
  _atom_site_symmetry_multiplicity
  _atom_site_fract_x
  _atom_site_fract_y
  _atom_site_fract_z
  _atom_site_occupancy
  Fe  Fe1       1.0  0.5943211913108826  0.16742239892482755  0.5985645055770874  1.0000
  Ni  Ni1       1.0  0.26938962936401367  0.005290789995342492  0.948663353919983  1.0000
  Ni  Ni2       1.0  0.9329587817192078  0.835636019706726  0.2760346829891205  1.0000
  Fe  Fe2       1.0  0.2716916501522064  0.5036022067070006  0.9529935121536256  1.0000
  Ni  Ni3       1.0  0.9332310557365417  0.3356161117553711  0.27578771114349365  1.0000
  H   H1        1.0  0.7670997977256775  0.7612677812576293  0.9467053413391114  1.0000
  Ni  Ni4       1.0  0.596177875995636  0.6660329103469849  0.6034142374992371  1.0000
  H   H2        1.0  0.7691657543182373  0.24653920531272885  0.9480412602424623  1.0000
  H   H3        1.0  0.09754690527915955  0.9089880585670471  0.6057046055793762  1.0000
  H   H4        1.0  0.09707630425691605  0.42473503947257996  0.6032528281211853  1.0000
