data_image0
_chemical_formula_structural       TbFe6CoTbCoFeCo4FeCo2Fe
_chemical_formula_sum              "Tb2 Fe9 Co8"
_cell_length_a       6.337466407227566
_cell_length_b       6.337340041671128
_cell_length_c       6.329916477203369
_cell_angle_alpha    82.86780980450756
_cell_angle_beta     82.89498029662109
_cell_angle_gamma    82.69870781173033

_space_group_name_H-M_alt    "P 1"
_space_group_IT_number       1

loop_
  _space_group_symop_operation_xyz
  'x, y, z'

loop_
  _atom_site_type_symbol
  _atom_site_label
  _atom_site_symmetry_multiplicity
  _atom_site_fract_x
  _atom_site_fract_y
  _atom_site_fract_z
  _atom_site_occupancy
  Tb  Tb1       1.0  0.44246065616607666  0.798400342464447  0.14425154030323029  1.0000
  Fe  Fe1       1.0  0.783774197101593  0.42465659976005554  0.19792750477790833  1.0000
  Fe  Fe2       1.0  0.7814416289329529  0.6397780179977417  0.4846096634864807  1.0000
  Fe  Fe3       1.0  0.12956954538822177  0.9839789867401123  0.8246752619743347  1.0000
  Fe  Fe4       1.0  0.4968032240867615  0.13978822529315948  0.7691881656646729  1.0000
  Fe  Fe5       1.0  0.28498902916908264  0.14241187274456024  0.4782455265522003  1.0000
  Fe  Fe6       1.0  0.6257427930831908  0.4842645525932312  0.8284814357757568  1.0000
  Co  Co1       1.0  0.12710008025169373  0.48379004001617426  0.3270909786224365  1.0000
  Tb  Tb2       1.0  0.12605498731136322  0.48002392053604126  0.822388768196106  1.0000
  Co  Co2       1.0  0.6879852414131165  0.04340677708387375  0.3871900141239166  1.0000
  Fe  Fe7       1.0  0.783175528049469  0.1392005831003189  0.9833358526229858  1.0000
  Co  Co3       1.0  0.43886709213256836  0.7974808216094971  0.6363587379455566  1.0000
  Co  Co4       1.0  0.7856788039207458  0.8504010438919067  0.7726700305938721  1.0000
  Co  Co5       1.0  0.07427135854959488  0.13886697590351105  0.19282379746437073  1.0000
  Co  Co6       1.0  0.44024229049682617  0.29350969195365906  0.1382924318313599  1.0000
  Fe  Fe8       1.0  0.9387637972831726  0.793268084526062  0.1402429044246674  1.0000
  Co  Co7       1.0  0.879683256149292  0.23546814918518064  0.5793596506118774  1.0000
  Co  Co8       1.0  0.4930874705314636  0.43079081177711487  0.4836818277835846  1.0000
  Fe  Fe9       1.0  0.07250759750604632  0.8518047332763671  0.4825590252876282  1.0000
