data_image0
_chemical_formula_structural       FeIrFeIrOFeOFeO8
_chemical_formula_sum              "Fe4 Ir2 O10"
_cell_length_a       3.8010252383116234
_cell_length_b       5.3587665092303975
_cell_length_c       10.129483222961426
_cell_angle_alpha    90.08682103746203
_cell_angle_beta     89.94881706552312
_cell_angle_gamma    110.80616407553457

_space_group_name_H-M_alt    "P 1"
_space_group_IT_number       1

loop_
  _space_group_symop_operation_xyz
  'x, y, z'

loop_
  _atom_site_type_symbol
  _atom_site_label
  _atom_site_symmetry_multiplicity
  _atom_site_fract_x
  _atom_site_fract_y
  _atom_site_fract_z
  _atom_site_occupancy
  Fe  Fe1       1.0  0.917995035648346  0.7607505917549133  0.3996448516845703  1.0000
  Ir  Ir1       1.0  0.9642535448074341  0.8529177904129027  0.09042110294103622  1.0000
  Fe  Fe2       1.0  0.2401472628116608  0.4046031832695008  0.21692536771297455  1.0000
  Ir  Ir2       1.0  0.24612702429294586  0.4162046015262604  0.5897027850151062  1.0000
  O   O1        1.0  0.15548352897167206  0.23527488112449646  0.03502613306045532  1.0000
  Fe  Fe3       1.0  0.971465528011322  0.8670711517333984  0.7188204526901245  1.0000
  O   O2        1.0  0.7995040416717529  0.5234590768814087  0.21756292879581451  1.0000
  Fe  Fe4       1.0  0.293564110994339  0.511288583278656  0.9006596207618713  1.0000
  O   O3        1.0  0.05371880158782005  0.032705500721931464  0.5359287261962891  1.0000
  O   O4        1.0  0.4243766963481903  0.7732387185096741  0.0760587602853775  1.0000
  O   O5        1.0  0.15607678890228271  0.2367415577173233  0.7653317451477051  1.0000
  O   O6        1.0  0.409676194190979  0.7444897294044495  0.7167937159538269  1.0000
  O   O7        1.0  0.34137383103370667  0.6076467037200928  0.4033427834510803  1.0000
  O   O8        1.0  0.781140148639679  0.48707485198974615  0.572889506816864  1.0000
  O   O9        1.0  0.8696162104606628  0.6651087999343872  0.9031479954719543  1.0000
  O   O10       1.0  0.05544326454401016  0.0364508256316185  0.26556098461151123  1.0000
