data_image0
_chemical_formula_structural       NiCrNi3CrNi10
_chemical_formula_sum              "Ni14 Cr2"
_cell_length_a       4.9989619190833965
_cell_length_b       5.000897609355095
_cell_length_c       6.981964588165283
_cell_angle_alpha    90.05262228007378
_cell_angle_beta     89.92497969996207
_cell_angle_gamma    89.73428769864815

_space_group_name_H-M_alt    "P 1"
_space_group_IT_number       1

loop_
  _space_group_symop_operation_xyz
  'x, y, z'

loop_
  _atom_site_type_symbol
  _atom_site_label
  _atom_site_symmetry_multiplicity
  _atom_site_fract_x
  _atom_site_fract_y
  _atom_site_fract_z
  _atom_site_occupancy
  Ni  Ni1       1.0  0.6407978534698486  0.31267932057380676  0.10012043267488478  1.0000
  Cr  Cr1       1.0  0.1435299515724182  0.3119234442710876  0.5972995162010193  1.0000
  Ni  Ni2       1.0  0.14280907809734344  0.8144505620002747  0.10001483559608458  1.0000
  Ni  Ni3       1.0  0.39094817638397217  0.562513530254364  0.3499784469604492  1.0000
  Ni  Ni4       1.0  0.3904913663864136  0.5627297163009644  0.8478388786315917  1.0000
  Cr  Cr2       1.0  0.39007434248924255  0.06518606841564178  0.35028815269470215  1.0000
  Ni  Ni5       1.0  0.6408261060714722  0.3126108646392822  0.5978491902351379  1.0000
  Ni  Ni6       1.0  0.14258766174316406  0.3124271631240845  0.09994298964738844  1.0000
  Ni  Ni7       1.0  0.8930680751800537  0.5623322129249573  0.8468751311302184  1.0000
  Ni  Ni8       1.0  0.8923006057739258  0.06450468301773071  0.34973788261413574  1.0000
  Ni  Ni9       1.0  0.8935814499855042  0.5618324875831604  0.3504728674888611  1.0000
  Ni  Ni10      1.0  0.6399415731430054  0.8148868083953857  0.10139282792806627  1.0000
  Ni  Ni11      1.0  0.3908153772354126  0.06443601846694946  0.847716450691223  1.0000
  Ni  Ni12      1.0  0.14254367351531982  0.8147873878479004  0.5977424383163452  1.0000
  Ni  Ni13      1.0  0.6402941942214966  0.8150907754898071  0.5972541570663452  1.0000
  Ni  Ni14      1.0  0.8924341201782227  0.0644945502281189  0.8477411866188048  1.0000
