data_image0
_chemical_formula_structural       CeFe3CeFe2CeFe4
_chemical_formula_sum              "Ce3 Fe9"
_cell_length_a       5.0174975881321275
_cell_length_b       5.016309772262247
_cell_length_c       8.78321361541748
_cell_angle_alpha    73.36157091971322
_cell_angle_beta     73.40870742838572
_cell_angle_gamma    59.99342747456552

_space_group_name_H-M_alt    "P 1"
_space_group_IT_number       1

loop_
  _space_group_symop_operation_xyz
  'x, y, z'

loop_
  _atom_site_type_symbol
  _atom_site_label
  _atom_site_symmetry_multiplicity
  _atom_site_fract_x
  _atom_site_fract_y
  _atom_site_fract_z
  _atom_site_occupancy
  Ce  Ce1       1.0  0.9747728109359741  0.7800008654594421  0.6309941411018372  1.0000
  Fe  Fe1       1.0  0.04341197758913044  0.8491219878196716  0.9240984916687012  1.0000
  Fe  Fe2       1.0  0.5402822494506836  0.34619191288948054  0.441554993391037  1.0000
  Fe  Fe3       1.0  0.6050290465354919  0.4104735553264618  0.7416282296180725  1.0000
  Ce  Ce2       1.0  0.10284551233053212  0.9089277982711792  0.2471960186958313  1.0000
  Fe  Fe4       1.0  0.03290450572967529  0.3461718261241913  0.4414152503013611  1.0000
  Fe  Fe5       1.0  0.2902590334415436  0.09602954983711241  0.6842522621154785  1.0000
  Ce  Ce3       1.0  0.48221513628959656  0.2888867259025574  0.10639757663011551  1.0000
  Fe  Fe6       1.0  0.5402459502220154  0.8387742638587952  0.441432923078537  1.0000
  Fe  Fe7       1.0  0.04378378763794899  0.34959378838539124  0.924045741558075  1.0000
  Fe  Fe8       1.0  0.7907640933990479  0.5970011353492736  0.1820032596588135  1.0000
  Fe  Fe9       1.0  0.5440523028373718  0.8492977023124695  0.9243133664131165  1.0000
