data_image0
_chemical_formula_structural       VOMnOVOMnO3
_chemical_formula_sum              "V2 O6 Mn2"
_cell_length_a       3.4137248491302445
_cell_length_b       5.356287042974902
_cell_length_c       7.689639568328857
_cell_angle_alpha    108.09730507032756
_cell_angle_beta     90.04686443064922
_cell_angle_gamma    90.0786384740602

_space_group_name_H-M_alt    "P 1"
_space_group_IT_number       1

loop_
  _space_group_symop_operation_xyz
  'x, y, z'

loop_
  _atom_site_type_symbol
  _atom_site_label
  _atom_site_symmetry_multiplicity
  _atom_site_fract_x
  _atom_site_fract_y
  _atom_site_fract_z
  _atom_site_occupancy
  V   V1        1.0  0.11235961318016054  0.1889395862817764  0.053633291274309165  1.0000
  O   O1        1.0  0.11275215446949005  0.341666430234909  0.3351763486862183  1.0000
  Mn  Mn1       1.0  0.6116975545883179  0.6624318361282349  0.8989789485931398  1.0000
  O   O2        1.0  0.1126333996653557  0.9001758098602295  0.8412607312202455  1.0000
  V   V2        1.0  0.6128642559051514  0.21668389439582825  0.40080481767654424  1.0000
  O   O3        1.0  0.6117300391197205  0.0645090788602829  0.11828768253326417  1.0000
  Mn  Mn2       1.0  0.11353690922260286  0.7433234453201294  0.5551860928535461  1.0000
  O   O4        1.0  0.11234486103057863  0.47129741311073303  0.9873216748237611  1.0000
  O   O5        1.0  0.6128330230712891  0.9352437853813171  0.46748018264770513  1.0000
  O   O6        1.0  0.6124585866928101  0.5081301331520081  0.6119670867919922  1.0000
