data_image0
_chemical_formula_structural       FMn2FMn2F3Ge
_chemical_formula_sum              "F5 Mn4 Ge1"
_cell_length_a       5.783328499737508
_cell_length_b       5.781394930203067
_cell_length_c       6.387721538543701
_cell_angle_alpha    60.75312036472244
_cell_angle_beta     60.60254831665111
_cell_angle_gamma    61.236504788686815

_space_group_name_H-M_alt    "P 1"
_space_group_IT_number       1

loop_
  _space_group_symop_operation_xyz
  'x, y, z'

loop_
  _atom_site_type_symbol
  _atom_site_label
  _atom_site_symmetry_multiplicity
  _atom_site_fract_x
  _atom_site_fract_y
  _atom_site_fract_z
  _atom_site_occupancy
  F   F1        1.0  0.8935378193855286  0.6697753667831421  0.252128541469574  1.0000
  Mn  Mn1       1.0  0.8229995965957642  0.9443394541740417  0.4350503385066986  1.0000
  Mn  Mn2       1.0  0.12323252111673356  0.20630183815956116  0.5609316825866699  1.0000
  F   F2        1.0  0.4149310290813446  0.8477938175201417  0.7547049522399902  1.0000
  Mn  Mn3       1.0  0.6194138526916504  0.7412882447242737  0.06940457224845886  1.0000
  Mn  Mn4       1.0  0.35862454771995544  0.44067779183387756  0.9452469348907471  1.0000
  F   F3        1.0  0.5209638476371765  0.3311915397644043  0.25177818536758423  1.0000
  F   F4        1.0  0.2319707125425339  0.0434706024825573  0.25298774242401123  1.0000
  F   F5        1.0  0.715530514717102  0.1492661088705063  0.751484751701355  1.0000
  Ge  Ge1       1.0  0.04179160296916962  0.5224689245223999  0.7518144249916077  1.0000
