data_image0
_chemical_formula_structural       EuGd3O3GdO3EuO2
_chemical_formula_sum              "Eu2 Gd4 O8"
_cell_length_a       3.513876814134164
_cell_length_b       6.637291864828301
_cell_length_c       10.153674125671387
_cell_angle_alpha    87.93048939690945
_cell_angle_beta     90.01603295882255
_cell_angle_gamma    90.01923631841616

_space_group_name_H-M_alt    "P 1"
_space_group_IT_number       1

loop_
  _space_group_symop_operation_xyz
  'x, y, z'

loop_
  _atom_site_type_symbol
  _atom_site_label
  _atom_site_symmetry_multiplicity
  _atom_site_fract_x
  _atom_site_fract_y
  _atom_site_fract_z
  _atom_site_occupancy
  Eu  Eu1       1.0  0.05312640219926834  0.21636536717414856  0.5773224830627441  1.0000
  Gd  Gd1       1.0  0.5532095432281494  0.17848506569862363  0.20427009463310242  1.0000
  Gd  Gd2       1.0  0.5530549883842468  0.6625716686248779  0.6838894486427307  1.0000
  Gd  Gd3       1.0  0.05301852896809578  0.3363339006900787  0.9117822051048279  1.0000
  O   O1        1.0  0.5533792972564697  0.9417626857757568  0.5424794554710388  1.0000
  O   O2        1.0  0.05324827879667282  0.05667405575513839  0.05219562351703644  1.0000
  O   O3        1.0  0.053041912615299225  0.6857014298439026  0.8447262048721313  1.0000
  Gd  Gd4       1.0  0.05333857983350754  0.8197634816169738  0.39010706543922424  1.0000
  O   O4        1.0  0.05362392216920853  0.17498953640460968  0.34289926290512085  1.0000
  O   O5        1.0  0.5531285405158997  0.312240183353424  0.7502250075340271  1.0000
  O   O6        1.0  0.5532869696617126  0.4274139702320099  0.04283164069056511  1.0000
  Eu  Eu2       1.0  0.553052544593811  0.7814075946807861  0.01786565780639648  1.0000
  O   O7        1.0  0.5531420111656189  0.8235381245613097  0.2515570223331452  1.0000
  O   O8        1.0  0.05304969102144241  0.571415901184082  0.5520094633102417  1.0000
