data_image0
_chemical_formula_structural       NiFeNiOFeNiOFeOLiO3NiO2
_chemical_formula_sum              "Ni4 Fe3 O8 Li1"
_cell_length_a       6.0067125665959
_cell_length_b       5.99197542827846
_cell_length_c       6.033666610717773
_cell_angle_alpha    119.80516428721309
_cell_angle_beta     90.16187115702546
_cell_angle_gamma    119.9662227057777

_space_group_name_H-M_alt    "P 1"
_space_group_IT_number       1

loop_
  _space_group_symop_operation_xyz
  'x, y, z'

loop_
  _atom_site_type_symbol
  _atom_site_label
  _atom_site_symmetry_multiplicity
  _atom_site_fract_x
  _atom_site_fract_y
  _atom_site_fract_z
  _atom_site_occupancy
  Ni  Ni1       1.0  0.22567500174045563  0.19480015337467194  0.31471535563468933  1.0000
  Fe  Fe1       1.0  0.7255741357803345  0.6951081156730651  0.814870297908783  1.0000
  Ni  Ni2       1.0  0.22534246742725364  0.6947364807128905  0.3147175312042235  1.0000
  O   O1        1.0  0.9719050526618958  0.6886733770370482  0.5639322996139525  1.0000
  Fe  Fe2       1.0  0.22604474425315857  0.6946280598640442  0.8146718740463257  1.0000
  Ni  Ni3       1.0  0.7254326939582825  0.19472980499267578  0.8144643306732178  1.0000
  O   O2        1.0  0.9735696911811829  0.19036827981472015  0.06297428160905838  1.0000
  Fe  Fe3       1.0  0.22535233199596405  0.1947713792324066  0.814534604549408  1.0000
  O   O3        1.0  0.4769386351108551  0.1980765461921692  0.5658554434776306  1.0000
  Li  Li1       1.0  0.7254924178123474  0.19492147862911224  0.31479647755622864  1.0000
  O   O4        1.0  0.9734624624252319  0.6943236589431763  0.06683816760778427  1.0000
  O   O5        1.0  0.979771614074707  0.20113351941108704  0.5682966709136963  1.0000
  O   O6        1.0  0.4709341526031494  0.1876547783613205  0.06032358109951019  1.0000
  Ni  Ni4       1.0  0.7256883382797241  0.694669783115387  0.3145831227302551  1.0000
  O   O7        1.0  0.47740739583969116  0.6948135495185852  0.5622004866600037  1.0000
  O   O8        1.0  0.4792063236236572  0.7016738057136536  0.06537391245365143  1.0000
