data_image0
_chemical_formula_structural       FeZr2Fe3B4Fe
_chemical_formula_sum              "Fe5 Zr2 B4"
_cell_length_a       4.831104287248497
_cell_length_b       5.096765233745879
_cell_length_c       5.9653401374816895
_cell_angle_alpha    78.92222792114312
_cell_angle_beta     66.13650238557834
_cell_angle_gamma    61.66871213450726

_space_group_name_H-M_alt    "P 1"
_space_group_IT_number       1

loop_
  _space_group_symop_operation_xyz
  'x, y, z'

loop_
  _atom_site_type_symbol
  _atom_site_label
  _atom_site_symmetry_multiplicity
  _atom_site_fract_x
  _atom_site_fract_y
  _atom_site_fract_z
  _atom_site_occupancy
  Fe  Fe1       1.0  0.018581166863441467  0.2732276916503906  0.14892743527889252  1.0000
  Zr  Zr1       1.0  0.9127392172813416  0.7729989886283875  0.3606601357460022  1.0000
  Zr  Zr2       1.0  0.6245368719100952  0.7731002569198607  0.9364554286003113  1.0000
  Fe  Fe2       1.0  0.268654465675354  0.2729749381542206  0.6487405300140381  1.0000
  Fe  Fe3       1.0  0.5187912583351135  0.2726971209049225  0.1484144330024719  1.0000
  Fe  Fe4       1.0  0.7686692476272583  0.27292174100875854  0.6485546827316284  1.0000
  B   B1        1.0  0.9889541864395142  0.054791420698165894  0.9266853928565979  1.0000
  B   B2        1.0  0.26714202761650085  0.05410534888505936  0.370246559381485  1.0000
  B   B3        1.0  0.5483043193817139  0.49152514338493347  0.3703174889087677  1.0000
  B   B4        1.0  0.27016749978065485  0.4916305840015411  0.9270511269569397  1.0000
  Fe  Fe5       1.0  0.2687656283378601  0.7728919386863708  0.6487830877304077  1.0000
