data_image0
_chemical_formula_structural       Eu2H2Fe2H6
_chemical_formula_sum              "Eu2 H8 Fe2"
_cell_length_a       3.5862479019749007
_cell_length_b       5.039088309671114
_cell_length_c       6.322474479675293
_cell_angle_alpha    90.0710569554673
_cell_angle_beta     106.56112776641992
_cell_angle_gamma    89.97951193568674

_space_group_name_H-M_alt    "P 1"
_space_group_IT_number       1

loop_
  _space_group_symop_operation_xyz
  'x, y, z'

loop_
  _atom_site_type_symbol
  _atom_site_label
  _atom_site_symmetry_multiplicity
  _atom_site_fract_x
  _atom_site_fract_y
  _atom_site_fract_z
  _atom_site_occupancy
  Eu  Eu1       1.0  0.9121062159538269  0.11564726382493973  0.9405943155288696  1.0000
  Eu  Eu2       1.0  0.17587730288505554  0.6158272624015808  0.46704810857772827  1.0000
  H   H1        1.0  0.5438456535339355  0.8657954931259155  0.20400594174861908  1.0000
  H   H2        1.0  0.35635554790496826  0.39644566178321833  0.8294125199317932  1.0000
  Fe  Fe1       1.0  0.6365721821784973  0.1160152480006218  0.38864803314208984  1.0000
  Fe  Fe2       1.0  0.45133358240127563  0.6160929203033446  0.019562784582376487  1.0000
  H   H3        1.0  0.5442427396774292  0.3657866418361664  0.20405009388923645  1.0000
  H   H4        1.0  0.9548816084861755  0.6152679324150084  0.026482522487640398  1.0000
  H   H5        1.0  0.7318568229675293  0.3352735638618469  0.5786914825439453  1.0000
  H   H6        1.0  0.1333286166191101  0.1157865822315216  0.38207125663757324  1.0000
  H   H7        1.0  0.3560265898704529  0.8347716331481934  0.8289454579353333  1.0000
  H   H8        1.0  0.7316696643829346  0.8962088823318481  0.5786623358726501  1.0000
