data_image0
_chemical_formula_structural       Mn3NMnN5
_chemical_formula_sum              "Mn4 N6"
_cell_length_a       2.7655912713561897
_cell_length_b       5.784763986928645
_cell_length_c       6.26054573059082
_cell_angle_alpha    102.31595391223999
_cell_angle_beta     102.7962257749065
_cell_angle_gamma    90.04997231490404

_space_group_name_H-M_alt    "P 1"
_space_group_IT_number       1

loop_
  _space_group_symop_operation_xyz
  'x, y, z'

loop_
  _atom_site_type_symbol
  _atom_site_label
  _atom_site_symmetry_multiplicity
  _atom_site_fract_x
  _atom_site_fract_y
  _atom_site_fract_z
  _atom_site_occupancy
  Mn  Mn1       1.0  0.8832414150238037  0.8674685359001161  0.16373662650585177  1.0000
  Mn  Mn2       1.0  0.20506031811237335  0.4919385313987732  0.8074774146080017  1.0000
  Mn  Mn3       1.0  0.8910726308822632  0.3354765772819519  0.17820380628108978  1.0000
  N   N1        1.0  0.38712698221206665  0.6016975045204163  0.17126154899597168  1.0000
  Mn  Mn4       1.0  0.5686578154563904  0.7119128108024598  0.5334829092025757  1.0000
  N   N2        1.0  0.04475468769669533  0.8998129963874818  0.48746415972709656  1.0000
  N   N3        1.0  0.05318532884120941  0.4603464305400849  0.5018307566642761  1.0000
  N   N4        1.0  0.38769885897636414  0.10141154378652573  0.17131337523460388  1.0000
  N   N5        1.0  0.7302141785621643  0.30303022265434265  0.8559755086898804  1.0000
  N   N6        1.0  0.7214895486831665  0.744069218635559  0.8405648469924927  1.0000
