data_image0
_chemical_formula_structural       Fe3FOFe2O2FFeOFO2F3
_chemical_formula_sum              "Fe6 F6 O6"
_cell_length_a       4.5505341628589795
_cell_length_b       5.076301888434449
_cell_length_c       8.862774848937988
_cell_angle_alpha    90.10727062117329
_cell_angle_beta     90.06850247169129
_cell_angle_gamma    86.69881515108551

_space_group_name_H-M_alt    "P 1"
_space_group_IT_number       1

loop_
  _space_group_symop_operation_xyz
  'x, y, z'

loop_
  _atom_site_type_symbol
  _atom_site_label
  _atom_site_symmetry_multiplicity
  _atom_site_fract_x
  _atom_site_fract_y
  _atom_site_fract_z
  _atom_site_occupancy
  Fe  Fe1       1.0  0.26585495471954346  0.4878462851047516  0.026540586724877357  1.0000
  Fe  Fe2       1.0  0.723357617855072  0.9580711722373962  0.143968403339386  1.0000
  Fe  Fe3       1.0  0.2731773555278778  0.9587503075599669  0.8088967800140381  1.0000
  F   F1        1.0  0.5068272352218628  0.28697171807289124  0.5085599422454834  1.0000
  O   O1        1.0  0.009141157381236553  0.6520657539367676  0.17319878935813904  1.0000
  Fe  Fe4       1.0  0.7752417922019958  0.4620528221130371  0.6746355295181274  1.0000
  Fe  Fe5       1.0  0.22220639884471893  0.47178891301155085  0.3405587077140808  1.0000
  O   O2        1.0  0.48228520154953003  0.8036513328552246  0.9884024262428284  1.0000
  O   O3        1.0  0.5259398818016052  0.7811586856842041  0.6648445725440979  1.0000
  F   F2        1.0  0.4786801040172577  0.2999773323535919  0.837108850479126  1.0000
  Fe  Fe6       1.0  0.7727331519126892  0.9442652463912963  0.5125820636749268  1.0000
  O   O4        1.0  0.9791049361228943  0.12713775038719177  0.6741786003112793  1.0000
  F   F3        1.0  0.02093998156487941  0.6323500871658325  0.8393692970275879  1.0000
  O   O5        1.0  0.47117793560028076  0.2907918095588684  0.1808728128671646  1.0000
  O   O6        1.0  0.9925146102905273  0.6126663088798523  0.5056570768356323  1.0000
  F   F4        1.0  0.000644683837890625  0.15146222710609436  0.9934587478637695  1.0000
  F   F5        1.0  0.969691276550293  0.12703420221805573  0.338708758354187  1.0000
  F   F6        1.0  0.5143377184867859  0.8023601174354553  0.33835530281066895  1.0000
