data_image0
_chemical_formula_structural       Co8BCo4BCo2B4
_chemical_formula_sum              "Co14 B6"
_cell_length_a       5.272974093493559
_cell_length_b       6.320814561173382
_cell_length_c       6.330373764038086
_cell_angle_alpha    112.1391301519142
_cell_angle_beta     102.23977735440381
_cell_angle_gamma    102.24540557373187

_space_group_name_H-M_alt    "P 1"
_space_group_IT_number       1

loop_
  _space_group_symop_operation_xyz
  'x, y, z'

loop_
  _atom_site_type_symbol
  _atom_site_label
  _atom_site_symmetry_multiplicity
  _atom_site_fract_x
  _atom_site_fract_y
  _atom_site_fract_z
  _atom_site_occupancy
  Co  Co1       1.0  0.36415013670921326  0.7681128978729248  0.3881888687610626  1.0000
  Co  Co2       1.0  0.8635681867599487  0.39998367428779596  0.7568095326423645  1.0000
  Co  Co3       1.0  0.932718813419342  0.1660335212945938  0.38714784383773804  1.0000
  Co  Co4       1.0  0.015127135440707207  0.07808485627174377  0.8032188415527344  1.0000
  Co  Co5       1.0  0.31865203380584717  0.3910311162471771  0.7482280731201172  1.0000
  Co  Co6       1.0  0.4314730167388916  0.3956461548805236  0.1527382284402847  1.0000
  Co  Co7       1.0  0.028563857078552246  0.8189560770988463  0.08239878714084618  1.0000
  Co  Co8       1.0  0.948570966720581  0.4073207378387451  0.1619933545589447  1.0000
  B   B1        1.0  0.18285293877124786  0.007461141794919968  0.5257135033607483  1.0000
  Co  Co9       1.0  0.5161676406860352  0.813038170337677  0.06648397445678704  1.0000
  Co  Co10      1.0  0.8169392943382263  0.7603594660758972  0.37994581460952753  1.0000
  Co  Co11      1.0  0.14383843541145325  0.6947662830352783  0.6699731349945068  1.0000
  Co  Co12      1.0  0.4469345808029175  0.17172987759113312  0.3951852023601532  1.0000
  B   B2        1.0  0.6833792924880981  0.5352890491485596  0.9970141649246217  1.0000
  Co  Co13      1.0  0.529514729976654  0.09249056875705719  0.8066825270652771  1.0000
  Co  Co14      1.0  0.6451776623725891  0.6837832927703857  0.6855993270874023  1.0000
  B   B3        1.0  0.7703732252120972  0.4466165602207184  0.4328658878803253  1.0000
  B   B4        1.0  0.27231425046920776  0.4451369643211365  0.43533116579055786  1.0000
  B   B5        1.0  0.3119909167289734  0.030657364055514336  0.01916668377816677  1.0000
  B   B6        1.0  0.8133552670478821  0.03235631808638573  0.022012991830706596  1.0000
