data_image0
_chemical_formula_structural       CoGdCo10
_chemical_formula_sum              "Co11 Gd1"
_cell_length_a       4.745663285493092
_cell_length_b       4.743686530697033
_cell_length_c       8.090263366699219
_cell_angle_alpha    73.02721970830683
_cell_angle_beta     72.97596044833446
_cell_angle_gamma    59.96201320175504

_space_group_name_H-M_alt    "P 1"
_space_group_IT_number       1

loop_
  _space_group_symop_operation_xyz
  'x, y, z'

loop_
  _atom_site_type_symbol
  _atom_site_label
  _atom_site_symmetry_multiplicity
  _atom_site_fract_x
  _atom_site_fract_y
  _atom_site_fract_z
  _atom_site_occupancy
  Co  Co1       1.0  0.2704661786556244  0.1276163011789322  0.4489542543888092  1.0000
  Gd  Gd1       1.0  0.6779823899269104  0.04883790761232376  0.7123948335647583  1.0000
  Co  Co2       1.0  0.013489671051502228  0.38434478640556335  0.707053542137146  1.0000
  Co  Co3       1.0  0.5992600321769714  0.45618686079978943  0.9765254855155945  1.0000
  Co  Co4       1.0  0.27080014348030085  0.6409517526626587  0.44874808192253113  1.0000
  Co  Co5       1.0  0.34270754456520086  0.7130887508392333  0.7194741368293762  1.0000
  Co  Co6       1.0  0.08540184795856481  0.456680953502655  0.9763123989105225  1.0000
  Co  Co7       1.0  0.17820432782173157  0.5488660335540771  0.21250773966312408  1.0000
  Co  Co8       1.0  0.8224461078643799  0.19299151003360746  0.2786538600921631  1.0000
  Co  Co9       1.0  0.08520225435495372  0.9702293872833252  0.9766150116920471  1.0000
  Co  Co10      1.0  0.7571438550949098  0.641098141670227  0.4488216042518616  1.0000
  Co  Co11      1.0  0.5333906412124635  0.9042870402336121  0.14634320139884946  1.0000
