data_image0
_chemical_formula_structural       GdSiGdCl2
_chemical_formula_sum              "Gd2 Si1 Cl2"
_cell_length_a       4.1170266271662825
_cell_length_b       4.1160454774425865
_cell_length_c       9.837967872619629
_cell_angle_alpha    89.99802857968605
_cell_angle_beta     90.02180447041864
_cell_angle_gamma    119.95260404535111

_space_group_name_H-M_alt    "P 1"
_space_group_IT_number       1

loop_
  _space_group_symop_operation_xyz
  'x, y, z'

loop_
  _atom_site_type_symbol
  _atom_site_label
  _atom_site_symmetry_multiplicity
  _atom_site_fract_x
  _atom_site_fract_y
  _atom_site_fract_z
  _atom_site_occupancy
  Gd  Gd1       1.0  0.12576009333133698  0.26193204522132874  0.8873803019523622  1.0000
  Si  Si1       1.0  0.45900925993919367  0.9286625385284423  0.05226757004857064  1.0000
  Gd  Gd2       1.0  0.7920411825180054  0.595255434513092  0.21772696077823642  1.0000
  Cl  Cl1       1.0  0.792417049407959  0.5952420830726624  0.7276648283004761  1.0000
  Cl  Cl2       1.0  0.12577508389949799  0.26175761222839355  0.37775152921676636  1.0000
