data_image0
_chemical_formula_structural       IFe2OFeO7
_chemical_formula_sum              "I1 Fe3 O8"
_cell_length_a       4.674834334072402
_cell_length_b       6.175089749352922
_cell_length_c       4.681762218475342
_cell_angle_alpha    89.97963487977752
_cell_angle_beta     87.75137448221129
_cell_angle_gamma    89.96904808473218

_space_group_name_H-M_alt    "P 1"
_space_group_IT_number       1

loop_
  _space_group_symop_operation_xyz
  'x, y, z'

loop_
  _atom_site_type_symbol
  _atom_site_label
  _atom_site_symmetry_multiplicity
  _atom_site_fract_x
  _atom_site_fract_y
  _atom_site_fract_z
  _atom_site_occupancy
  I   I1        1.0  0.030624181032180786  0.4519765079021454  0.5198879241943359  1.0000
  Fe  Fe1       1.0  0.5306695699691772  0.19043108820915222  0.020009426400065426  1.0000
  Fe  Fe2       1.0  0.5302262306213379  0.7131140828132629  0.01939190365374088  1.0000
  O   O1        1.0  0.3273864686489105  0.45186382532119745  0.2222362607717514  1.0000
  Fe  Fe3       1.0  0.030302632600069046  0.9517727494239807  0.5198225975036621  1.0000
  O   O2        1.0  0.7333975434303284  0.4516641795635223  0.8171758055686951  1.0000
  O   O3        1.0  0.8417606949806213  0.22140894830226895  0.33143460750579834  1.0000
  O   O4        1.0  0.7275918126106262  0.9517258405685424  0.8227360248565674  1.0000
  O   O5        1.0  0.3332361578941345  0.9518007040023804  0.21683429181575775  1.0000
  O   O6        1.0  0.8419177532196045  0.682500660419464  0.3312751352787018  1.0000
  O   O7        1.0  0.2188703417778015  0.6825737357139587  0.7078274488449097  1.0000
  O   O8        1.0  0.21904289722442627  0.2211199551820755  0.70818030834198  1.0000
