data_image0
_chemical_formula_structural       Pt5Rh
_chemical_formula_sum              "Pt5 Rh1"
_cell_length_a       2.791036701700247
_cell_length_b       2.7911838978267327
_cell_length_c       11.916563987731934
_cell_angle_alpha    89.97898601234675
_cell_angle_beta     89.98498291829074
_cell_angle_gamma    89.97187578247464

_space_group_name_H-M_alt    "P 1"
_space_group_IT_number       1

loop_
  _space_group_symop_operation_xyz
  'x, y, z'

loop_
  _atom_site_type_symbol
  _atom_site_label
  _atom_site_symmetry_multiplicity
  _atom_site_fract_x
  _atom_site_fract_y
  _atom_site_fract_z
  _atom_site_occupancy
  Pt  Pt1       1.0  0.29039740562438965  0.7373689413070679  0.7681214213371276  1.0000
  Pt  Pt2       1.0  0.29059889912605286  0.7375525832176208  0.44566825032234186  1.0000
  Pt  Pt3       1.0  0.29067036509513855  0.737442374229431  0.10693196952342986  1.0000
  Pt  Pt4       1.0  0.7906103134155273  0.23739151656627655  0.9373058676719664  1.0000
  Pt  Pt5       1.0  0.7910141944885254  0.23723876476287842  0.27589040994644165  1.0000
  Rh  Rh1       1.0  0.7900803685188293  0.2377808690071106  0.6070230007171631  1.0000
