data_image0
_chemical_formula_structural       Fe2BFe6CHC
_chemical_formula_sum              "Fe8 B1 C2 H1"
_cell_length_a       4.569486783567066
_cell_length_b       5.010108767313534
_cell_length_c       5.3831586837768555
_cell_angle_alpha    107.86920932952445
_cell_angle_beta     104.79297472715409
_cell_angle_gamma    93.01269687418988

_space_group_name_H-M_alt    "P 1"
_space_group_IT_number       1

loop_
  _space_group_symop_operation_xyz
  'x, y, z'

loop_
  _atom_site_type_symbol
  _atom_site_label
  _atom_site_symmetry_multiplicity
  _atom_site_fract_x
  _atom_site_fract_y
  _atom_site_fract_z
  _atom_site_occupancy
  Fe  Fe1       1.0  0.3042377829551697  0.22867907583713531  0.8411714434623718  1.0000
  Fe  Fe2       1.0  0.17334888875484467  0.44377705454826355  0.4884837567806244  1.0000
  B   B1        1.0  0.5030806064605713  0.8337930440902709  0.6582211852073669  1.0000
  Fe  Fe3       1.0  0.6156712770462036  0.5448840260505676  0.3206612169742584  1.0000
  Fe  Fe4       1.0  0.14278106391429898  0.8879016637802123  0.366124153137207  1.0000
  Fe  Fe5       1.0  0.7672319412231445  0.5569083094596863  0.8417105674743652  1.0000
  Fe  Fe6       1.0  0.6686787009239197  0.10805051028728485  0.4737011790275574  1.0000
  Fe  Fe7       1.0  0.8464263081550598  0.10455593466758728  0.013120943680405617  1.0000
  Fe  Fe8       1.0  0.33989426493644714  0.8070308566093444  0.9755645394325256  1.0000
  C   C1        1.0  0.7374870181083678  0.8144853115081786  0.1723073571920394  1.0000
  H   H1        1.0  0.1019606739282608  0.49230891466140747  0.7997363805770874  1.0000
  C   C2        1.0  0.30549636483192444  0.18700094521045685  0.1966806799173355  1.0000
