data_image0
_chemical_formula_structural       La2O2FeLaFe3O2FeO6
_chemical_formula_sum              "La3 O10 Fe5"
_cell_length_a       3.8302889748836884
_cell_length_b       5.723188008950175
_cell_length_c       12.074191093444824
_cell_angle_alpha    89.74574188870692
_cell_angle_beta     99.14198578818669
_cell_angle_gamma    90.00516612905832

_space_group_name_H-M_alt    "P 1"
_space_group_IT_number       1

loop_
  _space_group_symop_operation_xyz
  'x, y, z'

loop_
  _atom_site_type_symbol
  _atom_site_label
  _atom_site_symmetry_multiplicity
  _atom_site_fract_x
  _atom_site_fract_y
  _atom_site_fract_z
  _atom_site_occupancy
  La  La1       1.0  0.752870261669159  0.5457752346992493  0.5979021787643433  1.0000
  La  La2       1.0  0.3924717009067536  0.551409900188446  0.8772189617156982  1.0000
  O   O1        1.0  0.4668117761611939  0.8114894628524779  0.026954421773552898  1.0000
  O   O2        1.0  0.6397919058799745  0.5561844110488892  0.37145429849624634  1.0000
  Fe  Fe1       1.0  0.5390006303787231  0.5909503102302551  0.17046920955181122  1.0000
  La  La3       1.0  0.0009958744049072266  0.04831976071000099  0.09437067806720734  1.0000
  Fe  Fe2       1.0  0.6276746392250062  0.21484187245368955  0.34755057096481323  1.0000
  Fe  Fe3       1.0  0.1383950263261795  0.714502453804016  0.36753955483436584  1.0000
  Fe  Fe4       1.0  0.8450899124145509  0.0915539264678955  0.7829784154891969  1.0000
  O   O3        1.0  0.843177616596222  0.7465025782585144  0.7786803245544434  1.0000
  O   O4        1.0  0.22272257506847384  0.7305606007575989  0.5361005067825317  1.0000
  Fe  Fe5       1.0  0.23158712685108188  0.08819582313299179  0.5559329390525818  1.0000
  O   O5        1.0  0.3064741492271424  0.28138306736946106  0.7063125371932983  1.0000
  O   O6        1.0  0.5447858572006226  0.23091144859790802  0.180572047829628  1.0000
  O   O7        1.0  0.7126790285110475  0.16370202600955963  0.5166445374488831  1.0000
  O   O8        1.0  0.12986047565937042  0.08983311802148819  0.35201260447502136  1.0000
  O   O9        1.0  0.05272460728883744  0.6900383830070494  0.19805541634559634  1.0000
  O   O10       1.0  0.9151092767715455  0.2925535440444946  0.9230207204818726  1.0000
