data_image0
_chemical_formula_structural       Mn2O2LiFeMnO3FeO
_chemical_formula_sum              "Mn3 O6 Li1 Fe2"
_cell_length_a       5.374018245665064
_cell_length_b       5.376469397363823
_cell_length_c       5.35138463973999
_cell_angle_alpha    99.63610246743612
_cell_angle_beta     99.67801847634435
_cell_angle_gamma    120.22078342420222

_space_group_name_H-M_alt    "P 1"
_space_group_IT_number       1

loop_
  _space_group_symop_operation_xyz
  'x, y, z'

loop_
  _atom_site_type_symbol
  _atom_site_label
  _atom_site_symmetry_multiplicity
  _atom_site_fract_x
  _atom_site_fract_y
  _atom_site_fract_z
  _atom_site_occupancy
  Mn  Mn1       1.0  0.8395914435386658  0.4891971945762634  0.6046433448791504  1.0000
  Mn  Mn2       1.0  0.5041487812995911  0.8243242502212524  0.604468047618866  1.0000
  O   O1        1.0  0.07700715959072113  0.7392034530639647  0.3544864058494568  1.0000
  O   O2        1.0  0.41504281759262085  0.4029591977596283  0.36434975266456604  1.0000
  Li  Li1       1.0  0.004226455464959124  0.3246589303016662  0.10435416549444199  1.0000
  Fe  Fe1       1.0  0.16502387821674347  0.16228453814983368  0.6044236421585083  1.0000
  Mn  Mn3       1.0  0.33258554339408875  0.9963984489440918  0.10404999554157257  1.0000
  O   O3        1.0  0.265341579914093  0.5879625678062439  0.8564646244049072  1.0000
  O   O4        1.0  0.9269757866859436  0.913987398147583  0.845130443572998  1.0000
  O   O5        1.0  0.5901498794555664  0.25177428126335144  0.8540508151054382  1.0000
  Fe  Fe2       1.0  0.6703375577926636  0.6576051712036132  0.10429336875677105  1.0000
  O   O6        1.0  0.7403118014335632  0.06369716674089432  0.3521919548511505  1.0000
