data_image0
_chemical_formula_structural       FeEuOPO2PO4
_chemical_formula_sum              "Fe1 Eu1 O7 P2"
_cell_length_a       5.448464097211253
_cell_length_b       5.336010425827834
_cell_length_c       6.957953453063965
_cell_angle_alpha    89.16478646314518
_cell_angle_beta     75.69068162461436
_cell_angle_gamma    61.18397553997271

_space_group_name_H-M_alt    "P 1"
_space_group_IT_number       1

loop_
  _space_group_symop_operation_xyz
  'x, y, z'

loop_
  _atom_site_type_symbol
  _atom_site_label
  _atom_site_symmetry_multiplicity
  _atom_site_fract_x
  _atom_site_fract_y
  _atom_site_fract_z
  _atom_site_occupancy
  Fe  Fe1       1.0  0.021577725186944008  0.5035313963890076  0.8820245265960692  1.0000
  Eu  Eu1       1.0  0.9100015759468079  0.5641595721244812  0.37428358197212214  1.0000
  O   O1        1.0  0.9258010387420654  0.2732299566268921  0.686623990535736  1.0000
  P   P1        1.0  0.2825396656990051  0.8858240246772766  0.12808343768119812  1.0000
  O   O2        1.0  0.610844910144806  0.6942571401596069  0.11703928560018535  1.0000
  O   O3        1.0  0.057127270847558975  0.7294060587882996  0.6516588330268861  1.0000
  P   P2        1.0  0.1432550996541976  0.962798833847046  0.5872394442558289  1.0000
  O   O4        1.0  0.14969624578952795  0.7181967496871948  0.06118369102478026  1.0000
  O   O5        1.0  0.45315548777580256  0.8789635300636293  0.5707355141639708  1.0000
  O   O6        1.0  0.09856206923723229  0.9875302910804747  0.36244517564773554  1.0000
  O   O7        1.0  0.2024810016155243  0.18048425018787384  0.0494508109986782  1.0000
