data_image0
_chemical_formula_structural       Fe2TaFe2MoFeMoFe2MoFe
_chemical_formula_sum              "Fe8 Ta1 Mo3"
_cell_length_a       4.71423750674483
_cell_length_b       4.714251664990246
_cell_length_c       7.755022048950195
_cell_angle_alpha    89.9705302393709
_cell_angle_beta     89.97977831355705
_cell_angle_gamma    120.05065943286051

_space_group_name_H-M_alt    "P 1"
_space_group_IT_number       1

loop_
  _space_group_symop_operation_xyz
  'x, y, z'

loop_
  _atom_site_type_symbol
  _atom_site_label
  _atom_site_symmetry_multiplicity
  _atom_site_fract_x
  _atom_site_fract_y
  _atom_site_fract_z
  _atom_site_occupancy
  Fe  Fe1       1.0  0.5943281650543213  0.2398364245891571  0.43116748332977295  1.0000
  Fe  Fe2       1.0  0.5946491360664368  0.7508328557014465  0.43109554052352905  1.0000
  Ta  Ta1       1.0  0.098367840051651  0.2473865896463394  0.24725596606731415  1.0000
  Fe  Fe3       1.0  0.1058712974190712  0.7512899041175842  0.43137016892433167  1.0000
  Fe  Fe4       1.0  0.7649429440498352  0.5808606743812561  0.18106326460838318  1.0000
  Mo  Mo1       1.0  0.4317298531532288  0.9143368005752563  0.7463707327842712  1.0000
  Fe  Fe5       1.0  0.4247385263442993  0.4107097387313842  0.9310824275016785  1.0000
  Mo  Mo2       1.0  0.0981023758649826  0.2472490817308426  0.6224934458732605  1.0000
  Fe  Fe6       1.0  0.7648892998695374  0.5808132290840148  0.6820237040519714  1.0000
  Fe  Fe7       1.0  0.934913992881775  0.4109220504760742  0.9310910701751709  1.0000
  Mo  Mo3       1.0  0.4316896796226502  0.9139598011970519  0.10649541765451431  1.0000
  Fe  Fe8       1.0  0.9352021217346193  0.9210343956947326  0.9312736392021179  1.0000
