data_image0
_chemical_formula_structural       Mn2CuMn2OMn3O11
_chemical_formula_sum              "Mn7 Cu1 O12"
_cell_length_a       5.1458969112261865
_cell_length_b       6.339867384596179
_cell_length_c       7.862389087677002
_cell_angle_alpha    82.24972544272912
_cell_angle_beta     80.77068863815936
_cell_angle_gamma    59.30954553358119

_space_group_name_H-M_alt    "P 1"
_space_group_IT_number       1

loop_
  _space_group_symop_operation_xyz
  'x, y, z'

loop_
  _atom_site_type_symbol
  _atom_site_label
  _atom_site_symmetry_multiplicity
  _atom_site_fract_x
  _atom_site_fract_y
  _atom_site_fract_z
  _atom_site_occupancy
  Mn  Mn1       1.0  0.17017197608947746  0.7838707566261293  0.42123270034790045  1.0000
  Mn  Mn2       1.0  0.8292675018310547  0.659177601337433  0.1369972974061966  1.0000
  Cu  Cu1       1.0  0.9258001446723936  0.3708542883396149  0.44352963566780096  1.0000
  Mn  Mn3       1.0  0.5469841361045837  0.9049246311187744  0.6141319870948792  1.0000
  Mn  Mn4       1.0  0.4068252444267273  0.5051182508468628  0.7885222434997559  1.0000
  O   O1        1.0  0.24626801908016205  0.4102803766727448  0.014486668631434442  1.0000
  Mn  Mn5       1.0  0.14333003759384155  0.11620897799730301  0.026130724698305133  1.0000
  Mn  Mn6       1.0  0.5246341228485107  0.22656396031379702  0.20349544286727908  1.0000
  Mn  Mn7       1.0  0.9195106625556946  0.014485595747828485  0.7820234894752502  1.0000
  O   O2        1.0  0.5267267227172852  0.17861336469650269  0.7079538106918335  1.0000
  O   O3        1.0  0.13199424743652344  0.05540984123945236  0.5544772148132324  1.0000
  O   O4        1.0  0.3374881148338318  0.8426835536956787  0.840571165084839  1.0000
  O   O5        1.0  0.38715407252311707  0.8787666559219361  0.1992090493440628  1.0000
  O   O6        1.0  0.8322136998176575  0.34867602586746216  0.20511905848979953  1.0000
  O   O7        1.0  0.18800099194049835  0.5011317729949951  0.3334983289241791  1.0000
  O   O8        1.0  0.8620676398277283  0.30453377962112427  0.8526164293289186  1.0000
  O   O9        1.0  0.9522953629493713  0.7334351539611818  0.6954379677772522  1.0000
  O   O10       1.0  0.5461742877960205  0.6130869388580322  0.5525583028793335  1.0000
  O   O11       1.0  0.7248579263687134  0.968528151512146  0.39355337619781494  1.0000
  O   O12       1.0  0.8156673312187195  0.9610817432403566  0.030153080821037296  1.0000
