data_image0
_chemical_formula_structural       EuSrO2WEu2O3EuO2WO6
_chemical_formula_sum              "Eu4 Sr1 O13 W2"
_cell_length_a       5.662905018841926
_cell_length_b       6.653698343223436
_cell_length_c       8.689931869506836
_cell_angle_alpha    94.9590002663528
_cell_angle_beta     94.57282738314632
_cell_angle_gamma    114.92276737794083

_space_group_name_H-M_alt    "P 1"
_space_group_IT_number       1

loop_
  _space_group_symop_operation_xyz
  'x, y, z'

loop_
  _atom_site_type_symbol
  _atom_site_label
  _atom_site_symmetry_multiplicity
  _atom_site_fract_x
  _atom_site_fract_y
  _atom_site_fract_z
  _atom_site_occupancy
  Eu  Eu1       1.0  0.3907018303871155  0.6808033585548401  0.1602109670639038  1.0000
  Sr  Sr1       1.0  0.915203332901001  0.783235490322113  0.8805345892906189  1.0000
  O   O1        1.0  0.5302386283874512  0.3983387053012848  0.926601767539978  1.0000
  O   O2        1.0  0.85402512550354  0.2039552330970764  0.48794493079185486  1.0000
  W   W1        1.0  0.7002736926078795  0.23586153984069821  0.00865114480257033  1.0000
  Eu  Eu2       1.0  0.7014034390449524  0.4767180979251861  0.46428224444389343  1.0000
  Eu  Eu3       1.0  0.4739562273025512  0.9058643579483031  0.5777008533477783  1.0000
  O   O3        1.0  0.7786499857902527  0.09917518496513365  0.8130332231521606  1.0000
  O   O4        1.0  0.285659521818161  0.15329739451408386  0.5523043274879456  1.0000
  O   O5        1.0  0.2696629762649536  0.35891154408454895  0.3045464754104614  1.0000
  Eu  Eu4       1.0  0.1725737452507019  0.37843453884124756  0.7301842570304871  1.0000
  O   O6        1.0  0.39302173256874084  0.9657297730445862  0.9999098181724548  1.0000
  O   O7        1.0  0.5579776167869568  0.6287955045700073  0.6615286469459534  1.0000
  W   W2        1.0  0.040033143013715744  0.07568188011646271  0.35045525431632996  1.0000
  O   O8        1.0  0.2021731287240982  0.8810723423957825  0.3035489022731781  1.0000
  O   O9        1.0  0.05037827417254448  0.48128607869148254  0.9733428359031677  1.0000
  O   O10       1.0  0.854103147983551  0.02617923356592655  0.13276825845241547  1.0000
  O   O11       1.0  0.07601316273212433  0.6597580313682556  0.6482141613960266  1.0000
  O   O12       1.0  0.7438968420028687  0.3797871470451355  0.20641615986824036  1.0000
  O   O13       1.0  0.7114042639732361  0.8025621771812439  0.3790111243724823  1.0000
