data_image0
_chemical_formula_structural       Co2N2
_chemical_formula_sum              "Co2 N2"
_cell_length_a       2.9539807252217933
_cell_length_b       2.9547324396721235
_cell_length_c       5.189037799835205
_cell_angle_alpha    89.94319581748147
_cell_angle_beta     89.99046073012785
_cell_angle_gamma    120.1408719292995

_space_group_name_H-M_alt    "P 1"
_space_group_IT_number       1

loop_
  _space_group_symop_operation_xyz
  'x, y, z'

loop_
  _atom_site_type_symbol
  _atom_site_label
  _atom_site_symmetry_multiplicity
  _atom_site_fract_x
  _atom_site_fract_y
  _atom_site_fract_z
  _atom_site_occupancy
  Co  Co1       1.0  0.15827257931232452  0.5745500922203064  0.9658238291740417  1.0000
  Co  Co2       1.0  0.8245574831962585  0.9097973108291626  0.4673019051551819  1.0000
  N   N1        1.0  0.157814621925354  0.5755229592323303  0.3290184736251831  1.0000
  N   N2        1.0  0.8250314593315125  0.9094485044479371  0.8272582292556763  1.0000
