data_image0
_chemical_formula_structural       MnFeMg2OMnMg2O4MnO3
_chemical_formula_sum              "Mn3 Fe1 Mg4 O8"
_cell_length_a       6.176325669053519
_cell_length_b       6.187013718452534
_cell_length_c       6.181669235229492
_cell_angle_alpha    59.971174474067915
_cell_angle_beta     60.163543478665794
_cell_angle_gamma    59.98800323804988

_space_group_name_H-M_alt    "P 1"
_space_group_IT_number       1

loop_
  _space_group_symop_operation_xyz
  'x, y, z'

loop_
  _atom_site_type_symbol
  _atom_site_label
  _atom_site_symmetry_multiplicity
  _atom_site_fract_x
  _atom_site_fract_y
  _atom_site_fract_z
  _atom_site_occupancy
  Mn  Mn1       1.0  0.2246937751770019  0.5743176341056824  0.2813875079154969  1.0000
  Fe  Fe1       1.0  0.22455312311649323  0.07437553256750107  0.28141602873802185  1.0000
  Mg  Mg1       1.0  0.2244974672794342  0.5743680596351624  0.7812780737876892  1.0000
  Mg  Mg2       1.0  0.7245044112205504  0.07441151887178421  0.7815225124359131  1.0000
  O   O1        1.0  0.47363045811653137  0.8364410400390626  0.020512135699391365  1.0000
  Mn  Mn2       1.0  0.7245205640792847  0.5740513801574707  0.28160709142684937  1.0000
  Mg  Mg3       1.0  0.2242407202720642  0.0744214877486229  0.7812950015068054  1.0000
  Mg  Mg4       1.0  0.7245187759399413  0.07433298230171204  0.2814136147499085  1.0000
  O   O2        1.0  0.9751542806625366  0.3124997913837433  0.5422617197036742  1.0000
  O   O3        1.0  0.9744488000869751  0.8337841629981994  0.022254997864365578  1.0000
  O   O4        1.0  0.46578148007392883  0.8333110213279725  0.5325512290000916  1.0000
  O   O5        1.0  0.47881606221199036  0.3196169137954712  0.025631750002503395  1.0000
  Mn  Mn3       1.0  0.7243900299072266  0.574591338634491  0.7813563942909241  1.0000
  O   O6        1.0  0.9832150340080261  0.3149082362651825  0.0309321582317353  1.0000
  O   O7        1.0  0.9699020981788635  0.8292984962463378  0.5370344519615173  1.0000
  O   O8        1.0  0.4748857319355011  0.31493693590164185  0.5401009917259216  1.0000
