data_image0
_chemical_formula_structural       MnLiMn3OMnOMnO5MnO5
_chemical_formula_sum              "Mn7 Li1 O12"
_cell_length_a       5.048820018916631
_cell_length_b       5.560016239831417
_cell_length_c       7.530534744262695
_cell_angle_alpha    82.53068530038834
_cell_angle_beta     90.03521895819536
_cell_angle_gamma    89.91155155283768

_space_group_name_H-M_alt    "P 1"
_space_group_IT_number       1

loop_
  _space_group_symop_operation_xyz
  'x, y, z'

loop_
  _atom_site_type_symbol
  _atom_site_label
  _atom_site_symmetry_multiplicity
  _atom_site_fract_x
  _atom_site_fract_y
  _atom_site_fract_z
  _atom_site_occupancy
  Mn  Mn1       1.0  0.2665710747241974  0.9620448350906372  0.4614352583885193  1.0000
  Li  Li1       1.0  0.26579955220222473  0.9084180593490602  0.9361419677734375  1.0000
  Mn  Mn2       1.0  0.7656095027923584  0.8701069951057435  0.15422576665878293  1.0000
  Mn  Mn3       1.0  0.268768846988678  0.32955700159072876  0.1421308070421219  1.0000
  Mn  Mn4       1.0  0.7652124762535095  0.46820405125617987  0.9620831608772278  1.0000
  O   O1        1.0  0.3967684209346771  0.29372012615203863  0.39026907086372375  1.0000
  Mn  Mn5       1.0  0.7660305500030518  0.4315987825393677  0.4416923522949219  1.0000
  O   O2        1.0  0.9626305103302002  0.12541885673999786  0.5612895488739014  1.0000
  Mn  Mn6       1.0  0.2656223773956299  0.3559272885322571  0.6705809235572815  1.0000
  O   O3        1.0  0.4354828894138336  0.9919060468673706  0.688871443271637  1.0000
  O   O4        1.0  0.6323143243789673  0.5024881362915039  0.716292679309845  1.0000
  O   O5        1.0  0.09265722334384918  0.3100927174091339  0.9154773950576782  1.0000
  O   O6        1.0  0.4661760926246643  0.6217090487480164  0.0614105574786663  1.0000
  O   O7        1.0  0.06917506456375122  0.6674436926841736  0.5487986207008362  1.0000
  Mn  Mn7       1.0  0.7637789845466614  0.833669900894165  0.6476945281028748  1.0000
  O   O8        1.0  0.5984592437744141  0.8030824065208435  0.4121330976486206  1.0000
  O   O9        1.0  0.8940457105636597  0.7942947745323181  0.8883350491523743  1.0000
  O   O10       1.0  0.1300964653491974  0.004644513130187988  0.2220013290643692  1.0000
  O   O11       1.0  0.9383476376533508  0.49558785557746887  0.19175325334072113  1.0000
  O   O12       1.0  0.5742295384407043  0.17741081118583682  0.048689138144254684  1.0000
