data_image0
_chemical_formula_structural       FeIr2Fe
_chemical_formula_sum              "Fe2 Ir2"
_cell_length_a       2.6995744510225137
_cell_length_b       4.526905938289444
_cell_length_c       4.661632061004639
_cell_angle_alpha    109.77853624490533
_cell_angle_beta     89.95886427447343
_cell_angle_gamma    90.03410563708327

_space_group_name_H-M_alt    "P 1"
_space_group_IT_number       1

loop_
  _space_group_symop_operation_xyz
  'x, y, z'

loop_
  _atom_site_type_symbol
  _atom_site_label
  _atom_site_symmetry_multiplicity
  _atom_site_fract_x
  _atom_site_fract_y
  _atom_site_fract_z
  _atom_site_occupancy
  Fe  Fe1       1.0  0.1939774751663208  0.9395359754562378  0.9733158946037291  1.0000
  Ir  Ir1       1.0  0.6942641139030457  0.44010430574417114  0.9728958010673522  1.0000
  Ir  Ir2       1.0  0.19355462491512299  0.43997061252593994  0.4728999733924865  1.0000
  Fe  Fe2       1.0  0.6934574842453003  0.9396526217460632  0.4730373620986938  1.0000
