data_image0
_chemical_formula_structural       Co12
_chemical_formula_sum              "Co12"
_cell_length_a       4.011456266462477
_cell_length_b       4.286884520580105
_cell_length_c       7.424804210662842
_cell_angle_alpha    89.98195031391707
_cell_angle_beta     89.97962121912887
_cell_angle_gamma    89.97505182240168

_space_group_name_H-M_alt    "P 1"
_space_group_IT_number       1

loop_
  _space_group_symop_operation_xyz
  'x, y, z'

loop_
  _atom_site_type_symbol
  _atom_site_label
  _atom_site_symmetry_multiplicity
  _atom_site_fract_x
  _atom_site_fract_y
  _atom_site_fract_z
  _atom_site_occupancy
  Co  Co1       1.0  0.6334218382835388  0.2406741976737976  0.24617329239845276  1.0000
  Co  Co2       1.0  0.6330286264419556  0.7409669756889343  0.7463607788085938  1.0000
  Co  Co3       1.0  0.13331738114356995  0.07280964404344559  0.41291794180870056  1.0000
  Co  Co4       1.0  0.13333790004253387  0.5728538632392883  0.9137188792228699  1.0000
  Co  Co5       1.0  0.6333144307136536  0.24130487442016602  0.5795219540596008  1.0000
  Co  Co6       1.0  0.13332805037498474  0.5732857584953308  0.2462533861398697  1.0000
  Co  Co7       1.0  0.633178174495697  0.7412737607955933  0.4131520688533783  1.0000
  Co  Co8       1.0  0.13334953784942627  0.57297420501709  0.5793355703353882  1.0000
  Co  Co9       1.0  0.1336701512336731  0.07262925058603288  0.07986704260110855  1.0000
  Co  Co10      1.0  0.6333935856819153  0.7408917546272279  0.08012048900127411  1.0000
  Co  Co11      1.0  0.13336831331253052  0.0733480378985405  0.7461523413658142  1.0000
  Co  Co12      1.0  0.6332488059997559  0.24049514532089233  0.913646936416626  1.0000
