data_image0
_chemical_formula_structural       KFeKFeOFeO5
_chemical_formula_sum              "K2 Fe3 O6"
_cell_length_a       5.272163694462043
_cell_length_b       5.307743437925291
_cell_length_c       6.506482124328613
_cell_angle_alpha    82.21451537464219
_cell_angle_beta     74.12306806722141
_cell_angle_gamma    60.22612351422877

_space_group_name_H-M_alt    "P 1"
_space_group_IT_number       1

loop_
  _space_group_symop_operation_xyz
  'x, y, z'

loop_
  _atom_site_type_symbol
  _atom_site_label
  _atom_site_symmetry_multiplicity
  _atom_site_fract_x
  _atom_site_fract_y
  _atom_site_fract_z
  _atom_site_occupancy
  K   K1        1.0  0.04072762280702591  0.5373639464378357  0.06577466428279877  1.0000
  Fe  Fe1       1.0  0.8741073608398438  0.8706647157669067  0.5662667155265808  1.0000
  K   K2        1.0  0.706877589225769  0.20434820652008057  0.06597676873207092  1.0000
  Fe  Fe2       1.0  0.5420793890953064  0.5353894829750061  0.5659439563751221  1.0000
  O   O1        1.0  0.12955111265182495  0.871631383895874  0.7264443635940552  1.0000
  Fe  Fe3       1.0  0.20582321286201477  0.20607277750968933  0.5663270950317383  1.0000
  O   O2        1.0  0.4880453944206238  0.20057781040668488  0.7359489798545837  1.0000
  O   O3        1.0  0.26037958264350897  0.5405624508857727  0.3963431715965271  1.0000
  O   O4        1.0  0.9300908446311951  0.20118892192840576  0.3966405987739563  1.0000
  O   O5        1.0  0.8176559805870056  0.5401836633682251  0.735727071762085  1.0000
  O   O6        1.0  0.6178126931190491  0.8702501058578492  0.40567415952682495  1.0000
