data_image0
_chemical_formula_structural       FeReFeReFe2
_chemical_formula_sum              "Fe4 Re2"
_cell_length_a       4.170555609797717
_cell_length_b       4.884421656892509
_cell_length_c       4.893809795379639
_cell_angle_alpha    63.29581965873444
_cell_angle_beta     64.78006870681791
_cell_angle_gamma    64.80906803725905

_space_group_name_H-M_alt    "P 1"
_space_group_IT_number       1

loop_
  _space_group_symop_operation_xyz
  'x, y, z'

loop_
  _atom_site_type_symbol
  _atom_site_label
  _atom_site_symmetry_multiplicity
  _atom_site_fract_x
  _atom_site_fract_y
  _atom_site_fract_z
  _atom_site_occupancy
  Fe  Fe1       1.0  0.29666098952293396  0.7881608009338379  0.3494152724742889  1.0000
  Re  Re1       1.0  0.9637101888656616  0.44535040855407715  0.35828685760498047  1.0000
  Fe  Fe2       1.0  0.6310418248176575  0.10090591013431549  0.36901950836181635  1.0000
  Re  Re2       1.0  0.9646862149238588  0.9439235329627991  0.8584120273590088  1.0000
  Fe  Fe3       1.0  0.6312720775604248  0.6001474857330323  0.8689765930175781  1.0000
  Fe  Fe4       1.0  0.2970130741596222  0.2875717282295227  0.8492283821105957  1.0000
