data_image0
_chemical_formula_structural       CoHP2MnHMnCo
_chemical_formula_sum              "Co2 H2 P2 Mn2"
_cell_length_a       3.482861786431185
_cell_length_b       3.482632546518709
_cell_length_c       6.017220497131348
_cell_angle_alpha    89.96568080257357
_cell_angle_beta     90.00741325975385
_cell_angle_gamma    89.93881766469133

_space_group_name_H-M_alt    "P 1"
_space_group_IT_number       1

loop_
  _space_group_symop_operation_xyz
  'x, y, z'

loop_
  _atom_site_type_symbol
  _atom_site_label
  _atom_site_symmetry_multiplicity
  _atom_site_fract_x
  _atom_site_fract_y
  _atom_site_fract_z
  _atom_site_occupancy
  Co  Co1       1.0  0.9959036111831665  0.3586750030517578  0.7154657244682312  1.0000
  H   H1        1.0  0.4952073097229004  0.8592945337295532  0.21524885296821594  1.0000
  P   P1        1.0  0.9959546327590942  0.8589634895324707  0.49702581763267517  1.0000
  P   P2        1.0  0.49519023299217224  0.35886186361312866  0.934012770652771  1.0000
  Mn  Mn1       1.0  0.9965083599090576  0.8592252135276794  0.09506405889987946  1.0000
  H   H2        1.0  0.9954437017440796  0.3586459457874298  0.21520225703716278  1.0000
  Mn  Mn2       1.0  0.49478089809417725  0.3582770526409149  0.3357120156288147  1.0000
  Co  Co2       1.0  0.49571794271469116  0.8587541580200195  0.7159181833267212  1.0000
