data_image0
_chemical_formula_structural       Fe2Co2NiFeNi3FeNi2
_chemical_formula_sum              "Fe4 Co2 Ni6"
_cell_length_a       3.5492845583807036
_cell_length_b       3.5113159267993646
_cell_length_c       10.99643611907959
_cell_angle_alpha    99.16585739845245
_cell_angle_beta     99.25184852512707
_cell_angle_gamma    90.0168251793669

_space_group_name_H-M_alt    "P 1"
_space_group_IT_number       1

loop_
  _space_group_symop_operation_xyz
  'x, y, z'

loop_
  _atom_site_type_symbol
  _atom_site_label
  _atom_site_symmetry_multiplicity
  _atom_site_fract_x
  _atom_site_fract_y
  _atom_site_fract_z
  _atom_site_occupancy
  Fe  Fe1       1.0  0.0923083946108818  0.18292726576328275  0.929139018058777  1.0000
  Fe  Fe2       1.0  0.4223419725894928  0.5130068063735962  0.589236855506897  1.0000
  Co  Co1       1.0  0.924834132194519  0.01572020724415779  0.5937690734863281  1.0000
  Co  Co2       1.0  0.757260799407959  0.8481404781341552  0.2597265839576721  1.0000
  Ni  Ni1       1.0  0.5915641784667969  0.6825474500656128  0.9281124472618104  1.0000
  Fe  Fe3       1.0  0.6770132184028625  0.26812884211540217  0.0990392789244652  1.0000
  Ni  Ni2       1.0  0.33989059925079346  0.9306699037551879  0.42447340488433843  1.0000
  Ni  Ni3       1.0  0.17548377811908722  0.7663795948028564  0.0959475338459015  1.0000
  Ni  Ni4       1.0  0.8406042456626892  0.43144398927688593  0.4259436130523682  1.0000
  Fe  Fe4       1.0  0.007970103994011877  0.5988196730613707  0.7618096470832826  1.0000
  Ni  Ni5       1.0  0.5081217288970947  0.09905364364385603  0.7613570094108583  1.0000
  Ni  Ni6       1.0  0.25771647691726685  0.348677784204483  0.2603718638420105  1.0000
