data_image0
_chemical_formula_structural       FeMn2Mg2MnN6
_chemical_formula_sum              "Fe1 Mn3 Mg2 N6"
_cell_length_a       5.068171076741467
_cell_length_b       5.0626946390475585
_cell_length_c       5.121626377105713
_cell_angle_alpha    80.48287820953246
_cell_angle_beta     70.6424129256783
_cell_angle_gamma    60.049956989724414

_space_group_name_H-M_alt    "P 1"
_space_group_IT_number       1

loop_
  _space_group_symop_operation_xyz
  'x, y, z'

loop_
  _atom_site_type_symbol
  _atom_site_label
  _atom_site_symmetry_multiplicity
  _atom_site_fract_x
  _atom_site_fract_y
  _atom_site_fract_z
  _atom_site_occupancy
  Fe  Fe1       1.0  0.2985350191593171  0.7627134323120116  0.6906518340110779  1.0000
  Mn  Mn1       1.0  0.7987675070762634  0.7616666555404662  0.19090929627418518  1.0000
  Mn  Mn2       1.0  0.4691532552242279  0.4212348461151123  0.19025525450706476  1.0000
  Mg  Mg1       1.0  0.965025007724762  0.4298996031284332  0.6909149885177612  1.0000
  Mg  Mg2       1.0  0.6324537396430969  0.09428270161151885  0.690544843673706  1.0000
  Mn  Mn3       1.0  0.12803131341934204  0.10362491756677628  0.19132643938064575  1.0000
  N   N1        1.0  0.38659200072288513  0.08599868416786194  0.42616403102874756  1.0000
  N   N2        1.0  0.8873526453971863  0.08538816124200821  0.9553118348121642  1.0000
  N   N3        1.0  0.06518669426441193  0.7628713250160217  0.424869567155838  1.0000
  N   N4        1.0  0.7096112966537474  0.4389523863792419  0.42683082818984985  1.0000
  N   N5        1.0  0.21116511523723602  0.4392746686935424  0.9549526572227477  1.0000
  N   N6        1.0  0.5317564010620117  0.7619497776031494  0.9565057158470153  1.0000
