data_image0
_chemical_formula_structural       ONaWNaOWNaO4
_chemical_formula_sum              "O6 Na3 W2"
_cell_length_a       5.446381858709654
_cell_length_b       5.635690923616084
_cell_length_c       5.743447780609131
_cell_angle_alpha    82.09172329847212
_cell_angle_beta     73.42773693686888
_cell_angle_gamma    61.22664888539417

_space_group_name_H-M_alt    "P 1"
_space_group_IT_number       1

loop_
  _space_group_symop_operation_xyz
  'x, y, z'

loop_
  _atom_site_type_symbol
  _atom_site_label
  _atom_site_symmetry_multiplicity
  _atom_site_fract_x
  _atom_site_fract_y
  _atom_site_fract_z
  _atom_site_occupancy
  O   O1        1.0  0.7431078553199768  0.6256559491157532  0.6069923043251038  1.0000
  Na  Na1       1.0  0.9494571089744568  0.7014902830123901  0.903759241104126  1.0000
  W   W1        1.0  0.4579667747020722  0.6849303245544434  0.4043208658695221  1.0000
  Na  Na2       1.0  0.794415295124054  0.011723211966454983  0.4045194685459137  1.0000
  O   O2        1.0  0.09153626114130019  0.02018270641565323  0.6032437682151794  1.0000
  W   W2        1.0  0.13037222623825073  0.33752667903900146  0.4049573540687561  1.0000
  Na  Na3       1.0  0.6354999542236328  0.32756033539772034  0.9046303629875183  1.0000
  O   O3        1.0  0.23107668757438662  0.6263666152954102  0.20266661047935486  1.0000
  O   O4        1.0  0.34920734167099  0.39033472537994385  0.6067653894424438  1.0000
  O   O5        1.0  0.4880216121673584  0.0186334066092968  0.2063724249601364  1.0000
  O   O6        1.0  0.8621046543121338  0.3888451159000397  0.20196428894996646  1.0000
