data_image0
_chemical_formula_structural       OGd2YbGd2OGdO6
_chemical_formula_sum              "O8 Gd5 Yb1"
_cell_length_a       6.212522058166565
_cell_length_b       6.209605786507806
_cell_length_c       6.224691390991211
_cell_angle_alpha    109.23092312820685
_cell_angle_beta     109.39551930265363
_cell_angle_gamma    109.45457988626436

_space_group_name_H-M_alt    "P 1"
_space_group_IT_number       1

loop_
  _space_group_symop_operation_xyz
  'x, y, z'

loop_
  _atom_site_type_symbol
  _atom_site_label
  _atom_site_symmetry_multiplicity
  _atom_site_fract_x
  _atom_site_fract_y
  _atom_site_fract_z
  _atom_site_occupancy
  O   O1        1.0  0.08304962515830994  0.9431682229042053  0.8323446512222289  1.0000
  Gd  Gd1       1.0  0.6963791847229004  0.5653999447822571  0.7006238102912902  1.0000
  Gd  Gd2       1.0  0.5715069770812988  0.31783121824264526  0.08157989382743835  1.0000
  Yb  Yb1       1.0  0.8199858069419861  0.06687823683023453  0.5810820460319519  1.0000
  Gd  Gd3       1.0  0.06359228491783142  0.18955473601818085  0.20087793469429013  1.0000
  Gd  Gd4       1.0  0.3235286772251129  0.6904528141021729  0.9609344601631163  1.0000
  O   O2        1.0  0.44307175278663635  0.5759654641151428  0.33029037714004517  1.0000
  Gd  Gd5       1.0  0.19751110672950753  0.8254867792129518  0.46237033605575567  1.0000
  O   O3        1.0  0.945090115070343  0.44245821237564087  0.9675633311271666  1.0000
  O   O4        1.0  0.9480060338973999  0.44629552960395813  0.467595487833023  1.0000
  O   O5        1.0  0.44558390974998474  0.07953394949436188  0.3310883045196533  1.0000
  O   O6        1.0  0.8091892600059509  0.8057984709739685  0.19473826885223386  1.0000
  O   O7        1.0  0.5800594091415405  0.9405002593994141  0.8332912921905516  1.0000
  O   O8        1.0  0.3124164044857025  0.3071800172328949  0.6944499611854552  1.0000
