data_image0
_chemical_formula_structural       GdB2O4GdO2
_chemical_formula_sum              "Gd2 B2 O6"
_cell_length_a       5.064206720583916
_cell_length_b       5.064888431945413
_cell_length_c       6.413828372955322
_cell_angle_alpha    66.73815454863822
_cell_angle_beta     66.71272467308725
_cell_angle_gamma    60.011272767042335

_space_group_name_H-M_alt    "P 1"
_space_group_IT_number       1

loop_
  _space_group_symop_operation_xyz
  'x, y, z'

loop_
  _atom_site_type_symbol
  _atom_site_label
  _atom_site_symmetry_multiplicity
  _atom_site_fract_x
  _atom_site_fract_y
  _atom_site_fract_z
  _atom_site_occupancy
  Gd  Gd1       1.0  0.9902999401092528  0.07107176631689072  0.5853264331817627  1.0000
  B   B1        1.0  0.24082067608833307  0.32087999582290655  0.8357375860214233  1.0000
  B   B2        1.0  0.7405117750167847  0.8207801580429078  0.33594852685928345  1.0000
  O   O1        1.0  0.2408674210309982  0.04540997371077538  0.8354623317718506  1.0000
  O   O2        1.0  0.4652639627456665  0.8206127285957336  0.3357731699943543  1.0000
  O   O3        1.0  0.9654507637023925  0.5961483120918274  0.8356960415840149  1.0000
  O   O4        1.0  0.5164897441864014  0.3207065463066101  0.8354805111885071  1.0000
  Gd  Gd2       1.0  0.49041381478309626  0.5707029700279236  0.08549099415540695  1.0000
  O   O5        1.0  0.7400540709495544  0.09652990102767944  0.33573052287101746  1.0000
  O   O6        1.0  0.015806544572114944  0.545405924320221  0.33609166741371155  1.0000
