data_image0
_chemical_formula_structural       Ni2FNi2OFOF4
_chemical_formula_sum              "Ni4 F6 O2"
_cell_length_a       4.555977087520591
_cell_length_b       5.135906296422851
_cell_length_c       5.6885294914245605
_cell_angle_alpha    89.80691306556388
_cell_angle_beta     91.10798901029774
_cell_angle_gamma    89.63154794759075

_space_group_name_H-M_alt    "P 1"
_space_group_IT_number       1

loop_
  _space_group_symop_operation_xyz
  'x, y, z'

loop_
  _atom_site_type_symbol
  _atom_site_label
  _atom_site_symmetry_multiplicity
  _atom_site_fract_x
  _atom_site_fract_y
  _atom_site_fract_z
  _atom_site_occupancy
  Ni  Ni1       1.0  0.3330494165420532  0.8850098848342896  0.32137104868888855  1.0000
  Ni  Ni2       1.0  0.8449348211288452  0.3683372139930725  0.11341990530490875  1.0000
  F   F1        1.0  0.5981395840644836  0.7019768357276917  0.08255274593830109  1.0000
  Ni  Ni3       1.0  0.34569668769836426  0.39697197079658514  0.6129906177520752  1.0000
  Ni  Ni4       1.0  0.8328773379325867  0.8812452554702759  0.8198731541633606  1.0000
  O   O1        1.0  0.5638184547424316  0.7228565812110901  0.5842244625091552  1.0000
  F   F2        1.0  0.06843799352645874  0.5476688146591187  0.851298451423645  1.0000
  O   O2        1.0  0.06238805875182152  0.041561342775821686  0.08491092175245285  1.0000
  F   F3        1.0  0.1000957041978836  0.06242451071739197  0.5860165357589722  1.0000
  F   F4        1.0  0.597894549369812  0.21457430720329287  0.8518093228340149  1.0000
  F   F5        1.0  0.5696411728858948  0.21642811596393585  0.35029420256614685  1.0000
  F   F6        1.0  0.09739348292350769  0.5509195923805237  0.3506264090538025  1.0000
