data_image0
_chemical_formula_structural       NiH3MnNiH3MnH2
_chemical_formula_sum              "Ni2 H8 Mn2"
_cell_length_a       4.111963296108937
_cell_length_b       4.11612453205673
_cell_length_c       5.0779032707214355
_cell_angle_alpha    113.96145313567438
_cell_angle_beta     114.00736470640314
_cell_angle_gamma    89.95219139207931

_space_group_name_H-M_alt    "P 1"
_space_group_IT_number       1

loop_
  _space_group_symop_operation_xyz
  'x, y, z'

loop_
  _atom_site_type_symbol
  _atom_site_label
  _atom_site_symmetry_multiplicity
  _atom_site_fract_x
  _atom_site_fract_y
  _atom_site_fract_z
  _atom_site_occupancy
  Ni  Ni1       1.0  0.8554579615592957  0.0012888617347925901  0.8524162769317627  1.0000
  H   H1        1.0  0.4823974072933197  0.12572717666625977  0.6023507714271545  1.0000
  H   H2        1.0  0.4828983545303345  0.6256797909736633  0.6018853187561035  1.0000
  H   H3        1.0  0.9776444435119629  0.6260777115821838  0.6017022132873535  1.0000
  Mn  Mn1       1.0  0.3550627529621124  0.500320553779602  0.8515036106109619  1.0000
  Ni  Ni2       1.0  0.6048135161399841  0.25053367018699646  0.35128888487815857  1.0000
  H   H4        1.0  0.7304796576499939  0.3744027316570282  0.10192500054836273  1.0000
  H   H5        1.0  0.22970323264598846  0.37453722953796387  0.1017477735877037  1.0000
  H   H6        1.0  0.23114661872386932  0.8772965669631958  0.10221656411886215  1.0000
  Mn  Mn2       1.0  0.10582996159791946  0.7512275576591492  0.3523386120796204  1.0000
  H   H7        1.0  0.9780294299125671  0.12593324482440948  0.6014321446418762  1.0000
  H   H8        1.0  0.7301598787307739  0.8774740695953369  0.10223755985498428  1.0000
