data_image0
_chemical_formula_structural       EuAgEuPt
_chemical_formula_sum              "Eu2 Ag1 Pt1"
_cell_length_a       5.243051875268335
_cell_length_b       5.2432173702785265
_cell_length_c       5.2441277503967285
_cell_angle_alpha    59.982489002911166
_cell_angle_beta     60.00756522966981
_cell_angle_gamma    59.98850046311219

_space_group_name_H-M_alt    "P 1"
_space_group_IT_number       1

loop_
  _space_group_symop_operation_xyz
  'x, y, z'

loop_
  _atom_site_type_symbol
  _atom_site_label
  _atom_site_symmetry_multiplicity
  _atom_site_fract_x
  _atom_site_fract_y
  _atom_site_fract_z
  _atom_site_occupancy
  Eu  Eu1       1.0  0.9141286015510559  0.8033881187438965  0.7568360567092896  1.0000
  Ag  Ag1       1.0  0.16397060453891754  0.05371861904859543  0.00700622471049428  1.0000
  Eu  Eu2       1.0  0.4142191410064697  0.3033398687839508  0.2568339407444  1.0000
  Pt  Pt1       1.0  0.664255678653717  0.5531659722328186  0.5069761276245117  1.0000
