data_image0
_chemical_formula_structural       Ni2CuGa2Cu2Ni2Cu2NiGaCuGaNi3CuNi
_chemical_formula_sum              "Ni9 Cu7 Ga4"
_cell_length_a       5.0653086485280925
_cell_length_b       6.2278876196522575
_cell_length_c       7.74631404876709
_cell_angle_alpha    106.96423750950376
_cell_angle_beta     89.85049650854468
_cell_angle_gamma    89.17126840405426

_space_group_name_H-M_alt    "P 1"
_space_group_IT_number       1

loop_
  _space_group_symop_operation_xyz
  'x, y, z'

loop_
  _atom_site_type_symbol
  _atom_site_label
  _atom_site_symmetry_multiplicity
  _atom_site_fract_x
  _atom_site_fract_y
  _atom_site_fract_z
  _atom_site_occupancy
  Ni  Ni1       1.0  0.9981896281242371  0.2080258131027222  0.9397588372230531  1.0000
  Ni  Ni2       1.0  0.5078192353248596  0.38835084438323975  0.5290066003799438  1.0000
  Cu  Cu1       1.0  0.7462603449821472  0.5032030940055847  0.8366344571113586  1.0000
  Ga  Ga1       1.0  0.0037999323103576886  0.42344906926155096  0.5325990319252014  1.0000
  Ga  Ga2       1.0  0.7484971284866333  0.09530230611562729  0.6495643258094788  1.0000
  Cu  Cu2       1.0  0.24847036600112915  0.30419445037841797  0.23011979460716253  1.0000
  Cu  Cu3       1.0  0.24463161826133728  0.10353341698646547  0.6387783288955688  1.0000
  Ni  Ni3       1.0  0.49440571665763855  0.20252384245395663  0.9317771196365358  1.0000
  Ni  Ni4       1.0  0.24045981466770172  0.9067164659500122  0.030456047505140308  1.0000
  Cu  Cu4       1.0  0.48980990052223206  0.791732132434845  0.7340134978294374  1.0000
  Cu  Cu5       1.0  0.7428521513938904  0.30609807372093206  0.22919426858425143  1.0000
  Ni  Ni5       1.0  0.9800347089767456  0.01861563697457314  0.3466345965862274  1.0000
  Ga  Ga3       1.0  0.48070764541625977  0.9940667748451233  0.32441189885139465  1.0000
  Cu  Cu6       1.0  0.7441109418869019  0.9096086025238038  0.029592009261250527  1.0000
  Ga  Ga4       1.0  0.998223602771759  0.6166224479675294  0.14034301042556765  1.0000
  Ni  Ni6       1.0  0.2449716478586197  0.7057259678840638  0.4337616562843323  1.0000
  Ni  Ni7       1.0  0.9973725080490112  0.8051463961601258  0.7357498407363892  1.0000
  Ni  Ni8       1.0  0.7394302487373352  0.7083970308303833  0.4359721541404724  1.0000
  Cu  Cu7       1.0  0.2498411238193512  0.5023735165596008  0.8371608257293701  1.0000
  Ni  Ni9       1.0  0.4970686137676239  0.6042876839637756  0.1342628449201584  1.0000
