data_image0
_chemical_formula_structural       Mn3Co2MnCo3MnMoCo
_chemical_formula_sum              "Mn5 Co6 Mo1"
_cell_length_a       4.6521275588120945
_cell_length_b       4.651686352555539
_cell_length_c       7.4605207443237305
_cell_angle_alpha    89.94596888128379
_cell_angle_beta     89.97966902971804
_cell_angle_gamma    119.97508719724712

_space_group_name_H-M_alt    "P 1"
_space_group_IT_number       1

loop_
  _space_group_symop_operation_xyz
  'x, y, z'

loop_
  _atom_site_type_symbol
  _atom_site_label
  _atom_site_symmetry_multiplicity
  _atom_site_fract_x
  _atom_site_fract_y
  _atom_site_fract_z
  _atom_site_occupancy
  Mn  Mn1       1.0  0.4069599211215973  0.0854412093758583  0.35181140899658203  1.0000
  Mn  Mn2       1.0  0.07375171780586243  0.4192860722541809  0.7826733589172363  1.0000
  Mn  Mn3       1.0  0.0737583115696907  0.41894739866256714  0.4206259548664093  1.0000
  Co  Co1       1.0  0.5784007906913757  0.42808595299720764  0.6007062792778015  1.0000
  Co  Co2       1.0  0.7506020069122314  0.25738608837127686  0.10299362987279892  1.0000
  Mn  Mn4       1.0  0.4073576033115387  0.08553891628980637  0.8511878252029419  1.0000
  Co  Co3       1.0  0.23535899817943576  0.25765109062194824  0.10290100425481796  1.0000
  Co  Co4       1.0  0.06442908942699432  0.9140903353691101  0.6008378863334656  1.0000
  Co  Co5       1.0  0.5785456895828247  0.914242148399353  0.6007959842681885  1.0000
  Mn  Mn5       1.0  0.7403534650802612  0.7524932026863098  0.28404828906059265  1.0000
  Mo  Mo1       1.0  0.7405776977539062  0.7526965737342834  0.9197168946266174  1.0000
  Co  Co6       1.0  0.23551665246486667  0.7422141432762146  0.10288509726524353  1.0000
