data_image0
_chemical_formula_structural       YbFeP2FeYbFe2CuFe
_chemical_formula_sum              "Yb2 Fe5 P2 Cu1"
_cell_length_a       3.8663449065711326
_cell_length_b       3.8638439324623612
_cell_length_c       9.713274002075195
_cell_angle_alpha    89.99501646651255
_cell_angle_beta     89.98083699367531
_cell_angle_gamma    89.99554239085423

_space_group_name_H-M_alt    "P 1"
_space_group_IT_number       1

loop_
  _space_group_symop_operation_xyz
  'x, y, z'

loop_
  _atom_site_type_symbol
  _atom_site_label
  _atom_site_symmetry_multiplicity
  _atom_site_fract_x
  _atom_site_fract_y
  _atom_site_fract_z
  _atom_site_occupancy
  Yb  Yb1       1.0  0.3567217588424683  0.5953590273857117  0.3363898694515228  1.0000
  Fe  Fe1       1.0  0.85665762424469  0.5960162281990051  0.09159369766712189  1.0000
  P   P1        1.0  0.35667464137077337  0.5959617495536804  0.9730333089828491  1.0000
  P   P2        1.0  0.8564205765724183  0.09555935114622117  0.21102406084537506  1.0000
  Fe  Fe2       1.0  0.35664659738540655  0.09584955871105194  0.5918605923652649  1.0000
  Yb  Yb2       1.0  0.8567650318145753  0.09611379355192184  0.8474006652832031  1.0000
  Fe  Fe3       1.0  0.8564079999923707  0.09575482457876205  0.4528641998767853  1.0000
  Fe  Fe4       1.0  0.3568196594715119  0.09585165977478027  0.092025525867939  1.0000
  Cu  Cu1       1.0  0.8565984368324281  0.5959582924842834  0.5918793082237244  1.0000
  Fe  Fe5       1.0  0.3568588495254517  0.5958907604217529  0.7307845950126648  1.0000
