data_image0
_chemical_formula_structural       Fe5CoFe2Co2
_chemical_formula_sum              "Fe7 Co3"
_cell_length_a       4.015679412182437
_cell_length_b       4.718002745490833
_cell_length_c       6.977421283721924
_cell_angle_alpha    104.4379777399598
_cell_angle_beta     89.99071344712873
_cell_angle_gamma    115.19331050215409

_space_group_name_H-M_alt    "P 1"
_space_group_IT_number       1

loop_
  _space_group_symop_operation_xyz
  'x, y, z'

loop_
  _atom_site_type_symbol
  _atom_site_label
  _atom_site_symmetry_multiplicity
  _atom_site_fract_x
  _atom_site_fract_y
  _atom_site_fract_z
  _atom_site_occupancy
  Fe  Fe1       1.0  0.5095050930976868  0.630702018737793  0.8168491125106812  1.0000
  Fe  Fe2       1.0  0.20894451439380646  0.030158210545778278  0.719154417514801  1.0000
  Fe  Fe3       1.0  0.309439480304718  0.2308240681886673  0.41925135254859924  1.0000
  Fe  Fe4       1.0  0.6100815534591675  0.8318384289741516  0.5168839693069458  1.0000
  Fe  Fe5       1.0  0.10834325850009918  0.8288739323616028  0.01904654502868654  1.0000
  Co  Co1       1.0  0.9094635844230652  0.43092790246009827  0.617855966091156  1.0000
  Fe  Fe6       1.0  0.4092337191104889  0.4306972622871399  0.11785949021577835  1.0000
  Fe  Fe7       1.0  0.7105768918991089  0.03260241076350212  0.216755211353302  1.0000
  Co  Co2       1.0  0.010229521431028843  0.6323924660682678  0.3175618052482605  1.0000
  Co  Co3       1.0  0.8088008761405945  0.22936271131038669  0.9184058904647827  1.0000
