data_image0
_chemical_formula_structural       CeAlH10
_chemical_formula_sum              "Ce1 Al1 H10"
_cell_length_a       4.395672824179132
_cell_length_b       4.254632901379611
_cell_length_c       5.932468414306641
_cell_angle_alpha    76.89582019058933
_cell_angle_beta     83.40949197320812
_cell_angle_gamma    60.62705669175387

_space_group_name_H-M_alt    "P 1"
_space_group_IT_number       1

loop_
  _space_group_symop_operation_xyz
  'x, y, z'

loop_
  _atom_site_type_symbol
  _atom_site_label
  _atom_site_symmetry_multiplicity
  _atom_site_fract_x
  _atom_site_fract_y
  _atom_site_fract_z
  _atom_site_occupancy
  Ce  Ce1       1.0  0.6710687875747681  0.10634947568178177  0.8736566305160522  1.0000
  Al  Al1       1.0  0.6710622310638428  0.6057166457176208  0.37255963683128357  1.0000
  H   H1        1.0  0.0127695435658097  0.46438530087471014  0.803386926651001  1.0000
  H   H2        1.0  0.3319359421730042  0.8046711087226868  0.8024479746818542  1.0000
  H   H3        1.0  0.673952579498291  0.33279088139533997  0.18869180977344513  1.0000
  H   H4        1.0  0.9658126831054686  0.6884588599205017  0.19296464323997498  1.0000
  H   H5        1.0  0.3765982687473297  0.5259085297584534  0.5520455837249756  1.0000
  H   H6        1.0  0.32866886258125305  0.7517284154891968  0.9415902495384216  1.0000
  H   H7        1.0  0.010966368950903416  0.40915781259536743  0.9429612755775452  1.0000
  H   H8        1.0  0.9679188132286071  0.2319042831659317  0.5510277152061462  1.0000
  H   H9        1.0  0.6705869436264038  0.8798725605010986  0.5565744638442993  1.0000
  H   H10       1.0  0.3760531544685363  0.9809013009071351  0.19462928175926208  1.0000
