data_image0
_chemical_formula_structural       Fe4Co3Fe4Co
_chemical_formula_sum              "Fe8 Co4"
_cell_length_a       4.024178918640332
_cell_length_b       5.6822744133645955
_cell_length_c       6.347365379333496
_cell_angle_alpha    90.00910714646301
_cell_angle_beta     108.49441309280405
_cell_angle_gamma    89.9819639757561

_space_group_name_H-M_alt    "P 1"
_space_group_IT_number       1

loop_
  _space_group_symop_operation_xyz
  'x, y, z'

loop_
  _atom_site_type_symbol
  _atom_site_label
  _atom_site_symmetry_multiplicity
  _atom_site_fract_x
  _atom_site_fract_y
  _atom_site_fract_z
  _atom_site_occupancy
  Fe  Fe1       1.0  0.7709143161773682  0.2900674343109131  0.05444180592894553  1.0000
  Fe  Fe2       1.0  0.4372518062591553  0.783991277217865  0.3869304358959198  1.0000
  Fe  Fe3       1.0  0.2707235813140869  0.03694458678364754  0.054667368531227105  1.0000
  Fe  Fe4       1.0  0.6038801074028015  0.5359899401664734  0.7212581038475037  1.0000
  Co  Co1       1.0  0.7707326412200928  0.7896022796630859  0.05466599017381668  1.0000
  Co  Co2       1.0  0.10316383838653564  0.28503769636154175  0.71946120262146  1.0000
  Co  Co3       1.0  0.4376663267612457  0.2848694324493408  0.38910648226737976  1.0000
  Fe  Fe5       1.0  0.9372344017028809  0.5359213352203369  0.38768133521080017  1.0000
  Fe  Fe6       1.0  0.9375359416007996  0.037345390766859055  0.38786017894744873  1.0000
  Fe  Fe7       1.0  0.6040250658988953  0.03724554926156998  0.7215096354484558  1.0000
  Fe  Fe8       1.0  0.10440225154161453  0.7843493223190309  0.7223799228668213  1.0000
  Co  Co4       1.0  0.2702253758907318  0.5362227559089661  0.05436556786298751  1.0000
