data_image0
_chemical_formula_structural       Ni3PtNiPtNi2HN
_chemical_formula_sum              "Ni6 Pt2 H1 N1"
_cell_length_a       5.28786570029566
_cell_length_b       5.288781808222118
_cell_length_c       5.288275241851807
_cell_angle_alpha    90.01432541247242
_cell_angle_beta     120.02711869293655
_cell_angle_gamma    120.00776510125274

_space_group_name_H-M_alt    "P 1"
_space_group_IT_number       1

loop_
  _space_group_symop_operation_xyz
  'x, y, z'

loop_
  _atom_site_type_symbol
  _atom_site_label
  _atom_site_symmetry_multiplicity
  _atom_site_fract_x
  _atom_site_fract_y
  _atom_site_fract_z
  _atom_site_occupancy
  Ni  Ni1       1.0  0.19986002147197723  0.11891207844018935  0.6534014940261841  1.0000
  Ni  Ni2       1.0  0.7034208178520203  0.11894354969263077  0.15669989585876462  1.0000
  Ni  Ni3       1.0  0.207780122756958  0.6228270530700684  0.15663529932498932  1.0000
  Pt  Pt1       1.0  0.20326784253120422  0.6207727193832397  0.6550408005714417  1.0000
  Ni  Ni4       1.0  0.7036805152893066  0.6225972771644592  0.1572641134262085  1.0000
  Pt  Pt2       1.0  0.20351772010326385  0.1207764595746994  0.15533965826034546  1.0000
  Ni  Ni5       1.0  0.7036183476448059  0.11901713907718658  0.6529152393341064  1.0000
  Ni  Ni6       1.0  0.7037785053253174  0.6226112246513367  0.6531972289085388  1.0000
  H   H1        1.0  0.7036558389663696  0.8710017800331116  0.40514752268791204  1.0000
  N   N1        1.0  0.7038129568099976  0.37094223499298096  0.9048262238502504  1.0000
