data_image0
_chemical_formula_structural       Fe2LiFeLiOFe2LiMnO6
_chemical_formula_sum              "Fe5 Li3 O7 Mn1"
_cell_length_a       5.174460881523456
_cell_length_b       5.200741209662493
_cell_length_c       6.090084075927734
_cell_angle_alpha    72.95055170118316
_cell_angle_beta     89.92226812004044
_cell_angle_gamma    80.25817982148317

_space_group_name_H-M_alt    "P 1"
_space_group_IT_number       1

loop_
  _space_group_symop_operation_xyz
  'x, y, z'

loop_
  _atom_site_type_symbol
  _atom_site_label
  _atom_site_symmetry_multiplicity
  _atom_site_fract_x
  _atom_site_fract_y
  _atom_site_fract_z
  _atom_site_occupancy
  Fe  Fe1       1.0  0.8174588084220887  0.773707389831543  0.8243364691734314  1.0000
  Fe  Fe2       1.0  0.5702796578407288  0.2580501139163971  0.9532390832901001  1.0000
  Li  Li1       1.0  0.32695460319519043  0.7575991749763489  0.08460939675569538  1.0000
  Fe  Fe3       1.0  0.8293641209602357  0.7662316560745239  0.31342318654060364  1.0000
  Li  Li2       1.0  0.5761977434158325  0.2791617512702942  0.4239334762096405  1.0000
  O   O1        1.0  0.9385175108909608  0.028040291741490364  0.9876387715339661  1.0000
  Fe  Fe4       1.0  0.3326487839221955  0.7852481603622437  0.5619007349014282  1.0000
  Fe  Fe5       1.0  0.093590646982193  0.26202017068862915  0.691135585308075  1.0000
  Li  Li3       1.0  0.08444005250930786  0.2713755965232849  0.19800341129302979  1.0000
  Mn  Mn1       1.0  0.45328488945961004  0.020780202001333237  0.7560468316078186  1.0000
  O   O2        1.0  0.19533181190490723  0.5234038829803467  0.39540520310401917  1.0000
  O   O3        1.0  0.700171947479248  0.522526204586029  0.6474786400794983  1.0000
  O   O4        1.0  0.46055093407630926  0.01643764041364193  0.2565663754940033  1.0000
  O   O5        1.0  0.20778281986713412  0.5137277245521545  0.8660388588905334  1.0000
  O   O6        1.0  0.9685742259025575  0.011517275124788284  0.523856520652771  1.0000
  O   O7        1.0  0.7085944414138794  0.5173465609550476  0.11507830768823625  1.0000
