data_image0
_chemical_formula_structural       FeCoFeCo3FeCo2FeCo2
_chemical_formula_sum              "Fe4 Co8"
_cell_length_a       2.7998325736392218
_cell_length_b       3.997156438335891
_cell_length_c       12.275555610656738
_cell_angle_alpha    99.42740597190573
_cell_angle_beta     96.5020693503292
_cell_angle_gamma    89.99003717682129

_space_group_name_H-M_alt    "P 1"
_space_group_IT_number       1

loop_
  _space_group_symop_operation_xyz
  'x, y, z'

loop_
  _atom_site_type_symbol
  _atom_site_label
  _atom_site_symmetry_multiplicity
  _atom_site_fract_x
  _atom_site_fract_y
  _atom_site_fract_z
  _atom_site_occupancy
  Fe  Fe1       1.0  0.1536194235086441  0.6637117862701415  0.6369196772575378  1.0000
  Co  Co1       1.0  0.6522373557090759  0.16271668672561646  0.6344809532165527  1.0000
  Fe  Fe2       1.0  0.06885947287082672  0.0791192501783371  0.467791885137558  1.0000
  Co  Co2       1.0  0.9014594554901123  0.9122284650802612  0.13288824260234833  1.0000
  Co  Co3       1.0  0.5693243741989136  0.5798156261444092  0.46856382489204407  1.0000
  Co  Co4       1.0  0.4018302261829376  0.4119446575641632  0.13216030597686768  1.0000
  Fe  Fe3       1.0  0.9847863912582396  0.4957062900066376  0.2988151013851166  1.0000
  Co  Co5       1.0  0.7355532646179199  0.7460379004478455  0.8004536628723145  1.0000
  Co  Co6       1.0  0.23758205771446228  0.24781246483325958  0.8040159940719604  1.0000
  Fe  Fe4       1.0  0.48424351215362543  0.9948703646659851  0.2985090911388397  1.0000
  Co  Co7       1.0  0.8190146684646606  0.3294354975223541  0.9664178490638733  1.0000
  Co  Co8       1.0  0.31855452060699463  0.8294244408607483  0.9665364623069763  1.0000
