data_image0
_chemical_formula_structural       FeNiFeNi3Fe2Ni4
_chemical_formula_sum              "Fe4 Ni8"
_cell_length_a       3.5444890802905022
_cell_length_b       3.539625489310687
_cell_length_c       10.92318058013916
_cell_angle_alpha    99.31400358954087
_cell_angle_beta     99.32272543206126
_cell_angle_gamma    90.00934609742616

_space_group_name_H-M_alt    "P 1"
_space_group_IT_number       1

loop_
  _space_group_symop_operation_xyz
  'x, y, z'

loop_
  _atom_site_type_symbol
  _atom_site_label
  _atom_site_symmetry_multiplicity
  _atom_site_fract_x
  _atom_site_fract_y
  _atom_site_fract_z
  _atom_site_occupancy
  Fe  Fe1       1.0  0.7234876155853271  0.9672059416770935  0.22343645989894867  1.0000
  Ni  Ni1       1.0  0.39069247245788574  0.6344205141067504  0.5581209063529968  1.0000
  Fe  Fe2       1.0  0.9733197689056398  0.7165272235870361  0.7235800623893738  1.0000
  Ni  Ni2       1.0  0.05770745128393174  0.3015022277832031  0.8920433521270752  1.0000
  Ni  Ni3       1.0  0.6409055590629578  0.38437545299530024  0.058244913816452026  1.0000
  Ni  Ni4       1.0  0.22383958101272586  0.4674055278301239  0.22442632913589478  1.0000
  Fe  Fe3       1.0  0.5582963824272156  0.8018176555633545  0.8929021954536438  1.0000
  Fe  Fe4       1.0  0.807946801185608  0.5519618391990662  0.3927029073238373  1.0000
  Ni  Ni5       1.0  0.14060324430465698  0.8840346336364746  0.05837887153029442  1.0000
  Ni  Ni6       1.0  0.3077774941921234  0.05156949907541275  0.3924159109592438  1.0000
  Ni  Ni7       1.0  0.47348868846893316  0.21715068817138672  0.7238942980766296  1.0000
  Ni  Ni8       1.0  0.8906057476997377  0.1341509073972702  0.5580177307128906  1.0000
