data_image0
_chemical_formula_structural       DyMnGaGeDy2MnGe2
_chemical_formula_sum              "Dy3 Mn2 Ga1 Ge3"
_cell_length_a       4.13603326852589
_cell_length_b       6.9787333009363595
_cell_length_c       7.090677738189697
_cell_angle_alpha    120.4701820715609
_cell_angle_beta     89.96697170856856
_cell_angle_gamma    90.0013958651407

_space_group_name_H-M_alt    "P 1"
_space_group_IT_number       1

loop_
  _space_group_symop_operation_xyz
  'x, y, z'

loop_
  _atom_site_type_symbol
  _atom_site_label
  _atom_site_symmetry_multiplicity
  _atom_site_fract_x
  _atom_site_fract_y
  _atom_site_fract_z
  _atom_site_occupancy
  Dy  Dy1       1.0  0.7088873386383057  0.8521817922592164  0.1845761090517044  1.0000
  Mn  Mn1       1.0  0.2091788351535797  0.21260073781013492  0.19422341883182526  1.0000
  Ga  Ga1       1.0  0.2090064287185669  0.44773972034454346  0.9482313990592957  1.0000
  Ge  Ge1       1.0  0.7091768383979797  0.44719451665878296  0.20681893825531003  1.0000
  Dy  Dy2       1.0  0.7088351249694824  0.042650185525417335  0.7798506021499634  1.0000
  Dy  Dy3       1.0  0.7090080380439758  0.4471011459827423  0.6046454310417175  1.0000
  Mn  Mn2       1.0  0.20890817046165466  0.6813551783561707  0.42921233177185053  1.0000
  Ge  Ge2       1.0  0.2089688926935196  0.7914224267005922  0.8535343408584595  1.0000
  Ge  Ge3       1.0  0.2089494913816452  0.10170807689428331  0.5090958476066589  1.0000
