data_image0
_chemical_formula_structural       Fe2AlFeAlFe2AlH2FeH
_chemical_formula_sum              "Fe6 Al3 H3"
_cell_length_a       4.912995276397093
_cell_length_b       4.9238024070983055
_cell_length_c       4.933802127838135
_cell_angle_alpha    95.00386055003827
_cell_angle_beta     84.53313984511328
_cell_angle_gamma    84.83826459065972

_space_group_name_H-M_alt    "P 1"
_space_group_IT_number       1

loop_
  _space_group_symop_operation_xyz
  'x, y, z'

loop_
  _atom_site_type_symbol
  _atom_site_label
  _atom_site_symmetry_multiplicity
  _atom_site_fract_x
  _atom_site_fract_y
  _atom_site_fract_z
  _atom_site_occupancy
  Fe  Fe1       1.0  0.8445684909820557  0.8989115953445435  0.08510693162679671  1.0000
  Fe  Fe2       1.0  0.7409919500350952  0.6886166334152222  0.5363031029701233  1.0000
  Al  Al1       1.0  0.042089901864528656  0.35156235098838806  0.20879943668842316  1.0000
  Fe  Fe3       1.0  0.17937493324279782  0.5833699703216554  0.771779477596283  1.0000
  Al  Al2       1.0  0.28919944167137146  0.7950873374938965  0.3283197581768036  1.0000
  Fe  Fe4       1.0  0.5031445622444153  0.24819953739643097  0.40625452995300293  1.0000
  Fe  Fe5       1.0  0.613795816898346  0.47392401099205017  0.9968091249465942  1.0000
  Al  Al3       1.0  0.41938358545303345  0.025940965861082077  0.8623802661895752  1.0000
  H   H1        1.0  0.8775286674499513  0.46999382972717285  0.7450793385505676  1.0000
  H   H2        1.0  0.7698881030082703  0.9992043375968934  0.4239870309829712  1.0000
  Fe  Fe6       1.0  0.9640595316886903  0.124640092253685  0.6672433018684387  1.0000
  H   H3        1.0  0.5090880393981934  0.4814597368240357  0.672840416431427  1.0000
