data_image0
_chemical_formula_structural       FeHFeH4Pd2H3
_chemical_formula_sum              "Fe2 H8 Pd2"
_cell_length_a       4.316368678586393
_cell_length_b       4.316176840243912
_cell_length_c       5.231800556182861
_cell_angle_alpha    114.47877799868705
_cell_angle_beta     114.42820700361739
_cell_angle_gamma    89.93445278032796

_space_group_name_H-M_alt    "P 1"
_space_group_IT_number       1

loop_
  _space_group_symop_operation_xyz
  'x, y, z'

loop_
  _atom_site_type_symbol
  _atom_site_label
  _atom_site_symmetry_multiplicity
  _atom_site_fract_x
  _atom_site_fract_y
  _atom_site_fract_z
  _atom_site_occupancy
  Fe  Fe1       1.0  0.2610686421394348  0.3582535684108734  0.33685705065727234  1.0000
  H   H1        1.0  0.6105302572250366  0.7331149578094482  0.5865074992179871  1.0000
  Fe  Fe2       1.0  0.5106915235519409  0.10876835882663727  0.8370358347892761  1.0000
  H   H2        1.0  0.3860457241535187  0.45831745862960815  0.0875482857227325  1.0000
  H   H3        1.0  0.3859344720840454  0.008980284444987774  0.08745213598012924  1.0000
  H   H4        1.0  0.6099259853363037  0.23295278847217557  0.5863969922065735  1.0000
  H   H5        1.0  0.8866841197013855  0.4584998190402984  0.08725374937057495  1.0000
  Pd  Pd1       1.0  0.010940426029264927  0.6086422801017761  0.8368218541145325  1.0000
  Pd  Pd2       1.0  0.760568380355835  0.8579634428024292  0.3365238606929778  1.0000
  H   H6        1.0  0.1608269214630127  0.732916533946991  0.5863348245620728  1.0000
  H   H7        1.0  0.16118818521499634  0.23370003700256348  0.5864104628562927  1.0000
  H   H8        1.0  0.8861364722251892  0.009043088182806969  0.08698305487632751  1.0000
