data_image0
_chemical_formula_structural       Gd3OSeGd4Se6O2Se2Gd
_chemical_formula_sum              "Gd8 O3 Se9"
_cell_length_a       4.092349557049025
_cell_length_b       10.721446876964343
_cell_length_c       11.449507713317871
_cell_angle_alpha    96.12888185501733
_cell_angle_beta     100.26615278900518
_cell_angle_gamma    89.9510777884476

_space_group_name_H-M_alt    "P 1"
_space_group_IT_number       1

loop_
  _space_group_symop_operation_xyz
  'x, y, z'

loop_
  _atom_site_type_symbol
  _atom_site_label
  _atom_site_symmetry_multiplicity
  _atom_site_fract_x
  _atom_site_fract_y
  _atom_site_fract_z
  _atom_site_occupancy
  Gd  Gd1       1.0  0.9396024942398071  0.6642201542854309  0.2738442122936249  1.0000
  Gd  Gd2       1.0  0.6144778728485107  0.6808660626411438  0.6237804293632507  1.0000
  Gd  Gd3       1.0  0.7051399946212769  0.1727924942970276  0.805290937423706  1.0000
  O   O1        1.0  0.7697641253471375  0.35022297501564026  0.9350191354751587  1.0000
  Se  Se1       1.0  0.4046395421028137  0.4402755200862884  0.20601674914360046  1.0000
  Gd  Gd4       1.0  0.8743908405303955  0.23485779762268066  0.14472106099128723  1.0000
  Gd  Gd5       1.0  0.285435289144516  0.8480714559555053  0.9667819738388062  1.0000
  Gd  Gd6       1.0  0.5228132009506226  0.3054535388946533  0.440994530916214  1.0000
  Gd  Gd7       1.0  0.27628642320632935  0.449779748916626  0.9471245408058167  1.0000
  Se  Se2       1.0  0.1313772052526474  0.25407490134239197  0.6587029695510864  1.0000
  Se  Se3       1.0  0.043395429849624634  0.5297722816467285  0.4825798571109772  1.0000
  Se  Se4       1.0  0.8847845792770386  0.943782389163971  0.16503611207008362  1.0000
  Se  Se5       1.0  0.8150590062141418  0.6562584042549133  0.025649117305874825  1.0000
  Se  Se6       1.0  0.2928168773651123  0.1317926049232483  0.983879029750824  1.0000
  Se  Se7       1.0  0.6957045197486877  0.9075718522071837  0.7875832915306091  1.0000
  O   O2        1.0  0.5278522372245789  0.09964555501937866  0.4502158463001251  1.0000
  O   O3        1.0  0.9741279482841492  0.2340392768383026  0.34346428513526917  1.0000
  Se  Se8       1.0  0.19218692183494568  0.626142680644989  0.779459536075592  1.0000
  Se  Se9       1.0  0.5069252252578735  0.8068429231643677  0.41063788533210754  1.0000
  Gd  Gd8       1.0  0.008620367385447025  0.032293226569890976  0.41191360354423523  1.0000
