data_image0
_chemical_formula_structural       CoFe3CoFe2Co
_chemical_formula_sum              "Co3 Fe5"
_cell_length_a       2.8534205804755173
_cell_length_b       4.023707062222165
_cell_length_c       8.038477897644043
_cell_angle_alpha    89.9843955202399
_cell_angle_beta     90.01394292011555
_cell_angle_gamma    90.02090971480149

_space_group_name_H-M_alt    "P 1"
_space_group_IT_number       1

loop_
  _space_group_symop_operation_xyz
  'x, y, z'

loop_
  _atom_site_type_symbol
  _atom_site_label
  _atom_site_symmetry_multiplicity
  _atom_site_fract_x
  _atom_site_fract_y
  _atom_site_fract_z
  _atom_site_occupancy
  Co  Co1       1.0  0.6225473880767822  0.5331653356552124  0.8667961955070496  1.0000
  Fe  Fe1       1.0  0.6221044659614563  0.03297458589076996  0.6151906847953796  1.0000
  Fe  Fe2       1.0  0.12233670055866241  0.533089816570282  0.11727540194988251  1.0000
  Fe  Fe3       1.0  0.6222033500671387  0.033245619386434555  0.11828655004501343  1.0000
  Co  Co2       1.0  0.6219897866249084  0.5328096747398376  0.3666670322418213  1.0000
  Fe  Fe4       1.0  0.12282565236091614  0.03283640369772911  0.8667451739311218  1.0000
  Fe  Fe5       1.0  0.12227664142847061  0.5328021049499512  0.6158868670463562  1.0000
  Co  Co3       1.0  0.12192316353321075  0.03367841616272926  0.3667089343070984  1.0000
