data_image0
_chemical_formula_structural       CoMnCoCeCo3MnCo4
_chemical_formula_sum              "Co9 Mn2 Ce1"
_cell_length_a       4.785515813587688
_cell_length_b       4.784518250935874
_cell_length_c       8.288238525390625
_cell_angle_alpha    73.21793340693596
_cell_angle_beta     73.17435091039032
_cell_angle_gamma    59.936934707222186

_space_group_name_H-M_alt    "P 1"
_space_group_IT_number       1

loop_
  _space_group_symop_operation_xyz
  'x, y, z'

loop_
  _atom_site_type_symbol
  _atom_site_label
  _atom_site_symmetry_multiplicity
  _atom_site_fract_x
  _atom_site_fract_y
  _atom_site_fract_z
  _atom_site_occupancy
  Co  Co1       1.0  0.8475676178932191  0.7003734111785888  0.19200877845287323  1.0000
  Mn  Mn1       1.0  0.29360678791999817  0.1467643827199936  0.3640190362930298  1.0000
  Co  Co2       1.0  0.028943363577127505  0.8817443847656249  0.669486939907074  1.0000
  Ce  Ce1       1.0  0.438200443983078  0.29113560914993286  0.9310362339019775  1.0000
  Co  Co3       1.0  0.10306202620267868  0.955826461315155  0.9372548460960388  1.0000
  Co  Co4       1.0  0.7734480500221254  0.6267833113670349  0.924217164516449  1.0000
  Co  Co5       1.0  0.9381974935531616  0.790883183479309  0.43082886934280396  1.0000
  Mn  Mn2       1.0  0.5826027393341064  0.4354273080825805  0.4974285662174225  1.0000
  Co  Co6       1.0  0.5180695652961731  0.8816213607788085  0.669530987739563  1.0000
  Co  Co7       1.0  0.8473833203315735  0.2112196981906891  0.1919863522052765  1.0000
  Co  Co8       1.0  0.35836812853813177  0.7001348733901978  0.19190846383571625  1.0000
  Co  Co9       1.0  0.028936918824911118  0.37081727385520935  0.6697306632995605  1.0000
