data_image0
_chemical_formula_structural       CoGaCo3Si
_chemical_formula_sum              "Co4 Ga1 Si1"
_cell_length_a       3.873834621630493
_cell_length_b       3.879307366953506
_cell_length_c       4.82385778427124
_cell_angle_alpha    66.33802448526774
_cell_angle_beta     90.04943941450406
_cell_angle_gamma    90.00300096000284

_space_group_name_H-M_alt    "P 1"
_space_group_IT_number       1

loop_
  _space_group_symop_operation_xyz
  'x, y, z'

loop_
  _atom_site_type_symbol
  _atom_site_label
  _atom_site_symmetry_multiplicity
  _atom_site_fract_x
  _atom_site_fract_y
  _atom_site_fract_z
  _atom_site_occupancy
  Co  Co1       1.0  0.7165711522102356  0.33737009763717657  0.6049163937568665  1.0000
  Ga  Ga1       1.0  0.717112123966217  0.9988758563995361  0.2808493971824646  1.0000
  Co  Co2       1.0  0.21691301465034485  0.8373724818229675  0.604925274848938  1.0000
  Co  Co3       1.0  0.2171391248703003  0.16093432903289795  0.958285093307495  1.0000
  Co  Co4       1.0  0.7170556783676147  0.6604186892509462  0.958396255970001  1.0000
  Si  Si1       1.0  0.21688754856586456  0.49861267209053045  0.28181546926498413  1.0000
