data_image0
_chemical_formula_structural       O4EuOGe2OEuO
_chemical_formula_sum              "O7 Eu2 Ge2"
_cell_length_a       5.045405369584038
_cell_length_b       5.958591746862151
_cell_length_c       5.9598283767700195
_cell_angle_alpha    105.5241067016429
_cell_angle_beta     97.27011673969879
_cell_angle_gamma    97.30687798536478

_space_group_name_H-M_alt    "P 1"
_space_group_IT_number       1

loop_
  _space_group_symop_operation_xyz
  'x, y, z'

loop_
  _atom_site_type_symbol
  _atom_site_label
  _atom_site_symmetry_multiplicity
  _atom_site_fract_x
  _atom_site_fract_y
  _atom_site_fract_z
  _atom_site_occupancy
  O   O1        1.0  0.21437987685203552  0.764431357383728  0.7035762071609497  1.0000
  O   O2        1.0  0.15079733729362488  0.5506392121315002  0.18147316575050354  1.0000
  O   O3        1.0  0.2144426554441452  0.07256754487752914  0.3939661383628845  1.0000
  O   O4        1.0  0.6486771106719971  0.5495848655700684  0.8710469007492065  1.0000
  Eu  Eu1       1.0  0.43129268288612366  0.8499685525894165  0.09385152906179431  1.0000
  O   O5        1.0  0.7121140360832214  0.7630075216293335  0.39311087131500244  1.0000
  Ge  Ge1       1.0  0.840293824672699  0.38156160712242126  0.012259298004210032  1.0000
  Ge  Ge2       1.0  0.022171031683683395  0.9324427843093872  0.5624953508377075  1.0000
  O   O6        1.0  0.9303356409072876  0.15665841102600098  0.7871904969215393  1.0000
  Eu  Eu2       1.0  0.4307173192501068  0.46327444911003113  0.4809524714946747  1.0000
  O   O7        1.0  0.6490299105644226  0.24091404676437378  0.18117408454418182  1.0000
