data_image0
_chemical_formula_structural       NiSiCo2
_chemical_formula_sum              "Ni1 Si1 Co2"
_cell_length_a       3.4577461367849054
_cell_length_b       3.499930387513362
_cell_length_c       3.503119945526123
_cell_angle_alpha    90.00328099517509
_cell_angle_beta     90.02564303470498
_cell_angle_gamma    90.00288484440928

_space_group_name_H-M_alt    "P 1"
_space_group_IT_number       1

loop_
  _space_group_symop_operation_xyz
  'x, y, z'

loop_
  _atom_site_type_symbol
  _atom_site_label
  _atom_site_symmetry_multiplicity
  _atom_site_fract_x
  _atom_site_fract_y
  _atom_site_fract_z
  _atom_site_occupancy
  Ni  Ni1       1.0  0.5443329215049744  0.6278655529022218  0.6556813716888428  1.0000
  Si  Si1       1.0  0.5438185334205627  0.12779562175273895  0.15563666820526123  1.0000
  Co  Co1       1.0  0.04381747543811798  0.12796770036220553  0.6554291844367981  1.0000
  Co  Co2       1.0  0.04405415803194046  0.6276887655258179  0.15580053627490997  1.0000
