data_image0
_chemical_formula_structural       MnFe2MnC
_chemical_formula_sum              "Mn2 Fe2 C1"
_cell_length_a       3.774627227113602
_cell_length_b       3.7761061630217174
_cell_length_c       3.817476511001587
_cell_angle_alpha    89.99126669301269
_cell_angle_beta     90.0056579010747
_cell_angle_gamma    90.04243163821944

_space_group_name_H-M_alt    "P 1"
_space_group_IT_number       1

loop_
  _space_group_symop_operation_xyz
  'x, y, z'

loop_
  _atom_site_type_symbol
  _atom_site_label
  _atom_site_symmetry_multiplicity
  _atom_site_fract_x
  _atom_site_fract_y
  _atom_site_fract_z
  _atom_site_occupancy
  Mn  Mn1       1.0  0.5718869566917419  0.5552116036415099  0.3908318281173706  1.0000
  Fe  Fe1       1.0  0.0719122365117073  0.5554988980293274  0.8906551003456116  1.0000
  Fe  Fe2       1.0  0.571491539478302  0.055383358150720596  0.8904945254325867  1.0000
  Mn  Mn2       1.0  0.07175540924072266  0.05540509521961212  0.3909699320793152  1.0000
  C   C1        1.0  0.07158436626195908  0.055300455540418625  0.8910439610481262  1.0000
