data_image0
_chemical_formula_structural       OLiMnLiMnOVMnO2FOF2
_chemical_formula_sum              "O5 Li2 Mn3 V1 F3"
_cell_length_a       5.312073957684094
_cell_length_b       6.207462346585751
_cell_length_c       6.270488739013672
_cell_angle_alpha    122.73579377550094
_cell_angle_beta     92.57921866760131
_cell_angle_gamma    103.38719576108063

_space_group_name_H-M_alt    "P 1"
_space_group_IT_number       1

loop_
  _space_group_symop_operation_xyz
  'x, y, z'

loop_
  _atom_site_type_symbol
  _atom_site_label
  _atom_site_symmetry_multiplicity
  _atom_site_fract_x
  _atom_site_fract_y
  _atom_site_fract_z
  _atom_site_occupancy
  O   O1        1.0  0.6183454990386963  0.1593651473522186  0.08950293064117432  1.0000
  Li  Li1       1.0  0.43783441185951233  0.28317627310752863  0.39619213342666626  1.0000
  Mn  Mn1       1.0  0.21301265060901642  0.5976234674453735  0.04993534833192825  1.0000
  Li  Li2       1.0  0.9444422721862793  0.4765774011611938  0.4634627401828766  1.0000
  Mn  Mn2       1.0  0.8765056133270264  0.9694904685020447  0.9967713356018066  1.0000
  O   O2        1.0  0.1275852918624878  0.7509211301803589  0.4093748927116394  1.0000
  V   V1        1.0  0.3631589412689209  0.9745745658874511  0.7666887640953064  1.0000
  Mn  Mn3       1.0  0.8958337306976318  0.9749459028244019  0.4843384623527527  1.0000
  O   O3        1.0  0.10736646503210068  0.1874539703130722  0.8480813503265381  1.0000
  O   O4        1.0  0.06821905821561813  0.17998866736888883  0.35099098086357117  1.0000
  F   F1        1.0  0.6203271150588988  0.7057591080665587  0.6169369220733643  1.0000
  O   O5        1.0  0.10529256612062454  0.7472755908966064  0.8524754643440247  1.0000
  F   F2        1.0  0.6345928907394409  0.7112799882888794  0.126617893576622  1.0000
  F   F3        1.0  0.6147429943084717  0.1656728833913803  0.6104328632354736  1.0000
