data_image0
_chemical_formula_structural       Fe3OFe3O7
_chemical_formula_sum              "Fe6 O8"
_cell_length_a       5.31427521866885
_cell_length_b       5.379420031524376
_cell_length_c       6.603842258453369
_cell_angle_alpha    104.7595620963223
_cell_angle_beta     104.48425031811263
_cell_angle_gamma    111.38846462409944

_space_group_name_H-M_alt    "P 1"
_space_group_IT_number       1

loop_
  _space_group_symop_operation_xyz
  'x, y, z'

loop_
  _atom_site_type_symbol
  _atom_site_label
  _atom_site_symmetry_multiplicity
  _atom_site_fract_x
  _atom_site_fract_y
  _atom_site_fract_z
  _atom_site_occupancy
  Fe  Fe1       1.0  0.43223986029624945  0.9788615703582765  0.5760992765426636  1.0000
  Fe  Fe2       1.0  0.1634836196899414  0.7104962468147278  0.038459472358226776  1.0000
  Fe  Fe3       1.0  0.5500590801239014  0.595938801765442  0.8108348250389099  1.0000
  O   O1        1.0  0.05474337190389633  0.6263734698295593  0.3092523217201233  1.0000
  Fe  Fe4       1.0  0.2940390706062317  0.34114080667495733  0.3000308573246002  1.0000
  Fe  Fe5       1.0  0.6893392205238342  0.2338713109493256  0.08749625831842422  1.0000
  Fe  Fe6       1.0  0.8187516331672668  0.86422199010849  0.3491416275501251  1.0000
  O   O2        1.0  0.7731189131736755  0.36777055263519287  0.8294482827186584  1.0000
  O   O3        1.0  0.9274824261665344  0.9478392004966736  0.07857919484376907  1.0000
  O   O4        1.0  0.43980860710144043  0.5115607380867004  0.07936786115169525  1.0000
  O   O5        1.0  0.6364699602127075  0.7321581840515137  0.5590433478355408  1.0000
  O   O6        1.0  0.5422539114952087  0.06287465244531631  0.30851948261260986  1.0000
  O   O7        1.0  0.20884941518306732  0.20628032088279724  0.5582883358001709  1.0000
  O   O8        1.0  0.34586867690086365  0.8421794772148132  0.8288126587867737  1.0000
