data_image0
_chemical_formula_structural       Fe3ONiFe2O5
_chemical_formula_sum              "Fe5 O6 Ni1"
_cell_length_a       3.1036866761100015
_cell_length_b       3.0947067108857857
_cell_length_c       15.14787769317627
_cell_angle_alpha    90.32415647403623
_cell_angle_beta     89.79733031281692
_cell_angle_gamma    120.18876151689972

_space_group_name_H-M_alt    "P 1"
_space_group_IT_number       1

loop_
  _space_group_symop_operation_xyz
  'x, y, z'

loop_
  _atom_site_type_symbol
  _atom_site_label
  _atom_site_symmetry_multiplicity
  _atom_site_fract_x
  _atom_site_fract_y
  _atom_site_fract_z
  _atom_site_occupancy
  Fe  Fe1       1.0  0.853312373161316  0.9433118104934693  0.4343314468860627  1.0000
  Fe  Fe2       1.0  0.5141307711601257  0.2693914771080017  0.2655363082885742  1.0000
  Fe  Fe3       1.0  0.5251076221466064  0.28084817528724676  0.768551766872406  1.0000
  O   O1        1.0  0.8329984545707704  0.9007294774055481  0.18127308785915375  1.0000
  Ni  Ni1       1.0  0.8586146235466005  0.9408908486366273  0.9302206635475159  1.0000
  Fe  Fe4       1.0  0.18562267720699313  0.5999873876571655  0.09439802914857864  1.0000
  Fe  Fe5       1.0  0.1934481412172318  0.6144210100173951  0.5997101068496704  1.0000
  O   O2        1.0  0.5076829791069031  0.25041142106056213  0.5164230465888977  1.0000
  O   O3        1.0  0.19531551003456118  0.635187029838562  0.3529741168022156  1.0000
  O   O4        1.0  0.5258068442344666  0.28129884600639343  0.01042959839105606  1.0000
  O   O5        1.0  0.8707497715950013  0.9810364246368408  0.6828795075416565  1.0000
  O   O6        1.0  0.19232414662837985  0.5997987985610962  0.8520503044128418  1.0000
