data_image0
_chemical_formula_structural       HCo8H3
_chemical_formula_sum              "H4 Co8"
_cell_length_a       4.424269659341187
_cell_length_b       5.6838733747120465
_cell_length_c       5.090799808502197
_cell_angle_alpha    116.3875023614043
_cell_angle_beta     90.10956556961932
_cell_angle_gamma    121.06174178304673

_space_group_name_H-M_alt    "P 1"
_space_group_IT_number       1

loop_
  _space_group_symop_operation_xyz
  'x, y, z'

loop_
  _atom_site_type_symbol
  _atom_site_label
  _atom_site_symmetry_multiplicity
  _atom_site_fract_x
  _atom_site_fract_y
  _atom_site_fract_z
  _atom_site_occupancy
  H   H1        1.0  0.8893137574195862  0.9927294254302979  0.12617938220500946  1.0000
  Co  Co1       1.0  0.3933088481426239  0.24275408685207367  0.2547142207622528  1.0000
  Co  Co2       1.0  0.38807442784309387  0.23705662786960602  0.7418558597564697  1.0000
  Co  Co3       1.0  0.3847545385360718  0.7431817054748535  0.005712512880563736  1.0000
  Co  Co4       1.0  0.3899090886116028  0.7476626634597778  0.49792030453681946  1.0000
  Co  Co5       1.0  0.8877409100532532  0.24850872159004211  0.9988798499107361  1.0000
  Co  Co6       1.0  0.8892617225646973  0.7362850308418274  0.7435558438301086  1.0000
  Co  Co7       1.0  0.8970097303390503  0.7428517937660217  0.25643125176429743  1.0000
  Co  Co8       1.0  0.8804579377174377  0.2418516576290131  0.5050654411315918  1.0000
  H   H2        1.0  0.39076921343803406  0.49138879776000977  0.12488856166601181  1.0000
  H   H3        1.0  0.38858866691589355  0.9924739003181458  0.8778738975524902  1.0000
  H   H4        1.0  0.3863997459411621  0.4937485158443451  0.6249092221260071  1.0000
