data_image0
_chemical_formula_structural       MgFeOMgCrFeOFeO5FeO
_chemical_formula_sum              "Mg2 Fe4 O8 Cr1"
_cell_length_a       3.0844962750886826
_cell_length_b       6.589604560850349
_cell_length_c       8.282123565673828
_cell_angle_alpha    87.08637391070187
_cell_angle_beta     79.1620222791916
_cell_angle_gamma    76.47548292507496

_space_group_name_H-M_alt    "P 1"
_space_group_IT_number       1

loop_
  _space_group_symop_operation_xyz
  'x, y, z'

loop_
  _atom_site_type_symbol
  _atom_site_label
  _atom_site_symmetry_multiplicity
  _atom_site_fract_x
  _atom_site_fract_y
  _atom_site_fract_z
  _atom_site_occupancy
  Mg  Mg1       1.0  0.8266289234161378  0.9386337399482727  0.4870653748512268  1.0000
  Fe  Fe1       1.0  0.3309890925884247  0.4243243038654328  0.9921593070030212  1.0000
  O   O1        1.0  0.6366273164749146  0.2493528425693512  0.5580100417137146  1.0000
  Mg  Mg2       1.0  0.453004002571106  0.568067729473114  0.6065002679824829  1.0000
  Cr  Cr1       1.0  0.0782296434044838  0.19412411749362948  0.7282913327217102  1.0000
  Fe  Fe2       1.0  0.2225321829319  0.29693320393562317  0.3376448452472687  1.0000
  O   O2        1.0  0.7503033280372621  0.4022341966629029  0.17537297308444977  1.0000
  Fe  Fe3       1.0  0.6873935461044312  0.8283993005752563  0.8734610676765442  1.0000
  O   O3        1.0  0.3801459372043609  0.987737238407135  0.32917362451553345  1.0000
  O   O4        1.0  0.5268279910087585  0.14522433280944824  0.8810231685638428  1.0000
  O   O5        1.0  0.26096096634864796  0.8862757086753846  0.6692423224449158  1.0000
  O   O6        1.0  0.14741797745227814  0.7330110669136047  0.05158738419413567  1.0000
  O   O7        1.0  0.016035698354244232  0.6206235885620117  0.42482778429985046  1.0000
  Fe  Fe4       1.0  0.5675191283226013  0.7121334075927735  0.2310570627450943  1.0000
  O   O8        1.0  0.8970698714256288  0.5045803785324097  0.7818552255630493  1.0000
