data_image0
_chemical_formula_structural       FeCo3
_chemical_formula_sum              "Fe1 Co3"
_cell_length_a       4.004601389943201
_cell_length_b       4.002845610831151
_cell_length_c       4.007172584533691
_cell_angle_alpha    60.031967680611245
_cell_angle_beta     60.05740367479505
_cell_angle_gamma    60.02081958704555

_space_group_name_H-M_alt    "P 1"
_space_group_IT_number       1

loop_
  _space_group_symop_operation_xyz
  'x, y, z'

loop_
  _atom_site_type_symbol
  _atom_site_label
  _atom_site_symmetry_multiplicity
  _atom_site_fract_x
  _atom_site_fract_y
  _atom_site_fract_z
  _atom_site_occupancy
  Fe  Fe1       1.0  0.06725500524044038  0.11850324273109435  0.6852142214775085  1.0000
  Co  Co1       1.0  0.31737998127937317  0.368479311466217  0.9350810050964355  1.0000
  Co  Co2       1.0  0.5673493742942809  0.618240237236023  0.18509112298488628  1.0000
  Co  Co3       1.0  0.8173928260803223  0.8682265877723694  0.43503981828689575  1.0000
