data_image0
_chemical_formula_structural       OFe2H2OHFeHO3FeO
_chemical_formula_sum              "O6 Fe4 H4"
_cell_length_a       5.4135360383584255
_cell_length_b       5.574210011119192
_cell_length_c       5.609796524047852
_cell_angle_alpha    100.30485951068087
_cell_angle_beta     104.31715880118647
_cell_angle_gamma    118.80804281737865

_space_group_name_H-M_alt    "P 1"
_space_group_IT_number       1

loop_
  _space_group_symop_operation_xyz
  'x, y, z'

loop_
  _atom_site_type_symbol
  _atom_site_label
  _atom_site_symmetry_multiplicity
  _atom_site_fract_x
  _atom_site_fract_y
  _atom_site_fract_z
  _atom_site_occupancy
  O   O1        1.0  0.40257883071899414  0.5934168100357056  0.12690807878971103  1.0000
  Fe  Fe1       1.0  0.13915327191352844  0.3475419878959656  0.3067243695259094  1.0000
  Fe  Fe2       1.0  0.5114235877990723  0.7463657259941101  0.8528060913085938  1.0000
  H   H1        1.0  0.7669302225112915  0.48530343174934387  0.7243832349777222  1.0000
  H   H2        1.0  0.01912868581712246  0.21186769008636475  0.7338588237762451  1.0000
  O   O2        1.0  0.9184002876281738  0.11459790915250777  0.5453660488128662  1.0000
  H   H3        1.0  0.588350236415863  0.24352665245532992  0.9464781880378723  1.0000
  Fe  Fe3       1.0  0.4644245207309723  0.9985102415084839  0.3525313138961792  1.0000
  H   H4        1.0  0.07917914539575585  0.918359398841858  0.9363883137702942  1.0000
  O   O3        1.0  0.6704577803611755  0.20952041447162628  0.09914716333150864  1.0000
  O   O4        1.0  0.2341364026069641  0.7508604526519775  0.5501368045806885  1.0000
  O   O5        1.0  0.008007397875189696  0.9164476990699767  0.07840290665626526  1.0000
  Fe  Fe4       1.0  0.8268432021141052  0.6857001185417175  0.3647286295890808  1.0000
  O   O6        1.0  0.5827427506446838  0.4367722272872925  0.58571857213974  1.0000
