data_image0
_chemical_formula_structural       FeGeRh2
_chemical_formula_sum              "Fe1 Ge1 Rh2"
_cell_length_a       2.9624298022270246
_cell_length_b       2.962744809753089
_cell_length_c       6.435022830963135
_cell_angle_alpha    89.96434208898167
_cell_angle_beta     90.00945548578805
_cell_angle_gamma    90.02416771451986

_space_group_name_H-M_alt    "P 1"
_space_group_IT_number       1

loop_
  _space_group_symop_operation_xyz
  'x, y, z'

loop_
  _atom_site_type_symbol
  _atom_site_label
  _atom_site_symmetry_multiplicity
  _atom_site_fract_x
  _atom_site_fract_y
  _atom_site_fract_z
  _atom_site_occupancy
  Fe  Fe1       1.0  0.6464500427246094  0.024273384362459183  0.9621337056159972  1.0000
  Ge  Ge1       1.0  0.646489679813385  0.024509437382221222  0.4617418050765991  1.0000
  Rh  Rh1       1.0  0.1465209275484085  0.5245494842529297  0.7008257508277893  1.0000
  Rh  Rh2       1.0  0.14642328023910522  0.5241554379463196  0.22310028970241547  1.0000
