data_image0
_chemical_formula_structural       MnSSnS
_chemical_formula_sum              "Mn1 S2 Sn1"
_cell_length_a       3.3500769488058055
_cell_length_b       3.349902357283615
_cell_length_c       8.46056079864502
_cell_angle_alpha    78.55156078773595
_cell_angle_beta     78.57319865522481
_cell_angle_gamma    59.94632379910209

_space_group_name_H-M_alt    "P 1"
_space_group_IT_number       1

loop_
  _space_group_symop_operation_xyz
  'x, y, z'

loop_
  _atom_site_type_symbol
  _atom_site_label
  _atom_site_symmetry_multiplicity
  _atom_site_fract_x
  _atom_site_fract_y
  _atom_site_fract_z
  _atom_site_occupancy
  Mn  Mn1       1.0  0.26711720228195196  0.8658972978591919  0.23235735297203064  1.0000
  S   S1        1.0  0.8815438151359558  0.48053655028343206  0.38940224051475525  1.0000
  Sn  Sn1       1.0  0.7674002647399902  0.36572250723838806  0.7330731153488159  1.0000
  S   S2        1.0  0.6523331999778748  0.2519816756248474  0.07625468075275421  1.0000
