data_image0
_chemical_formula_structural       FeCo5
_chemical_formula_sum              "Fe1 Co5"
_cell_length_a       2.793048479933896
_cell_length_b       4.68432285787092
_cell_length_c       5.696574687957764
_cell_angle_alpha    107.71382387118368
_cell_angle_beta     89.98481216322041
_cell_angle_gamma    107.38404328334866

_space_group_name_H-M_alt    "P 1"
_space_group_IT_number       1

loop_
  _space_group_symop_operation_xyz
  'x, y, z'

loop_
  _atom_site_type_symbol
  _atom_site_label
  _atom_site_symmetry_multiplicity
  _atom_site_fract_x
  _atom_site_fract_y
  _atom_site_fract_z
  _atom_site_occupancy
  Fe  Fe1       1.0  0.038614384829998016  0.7285350561141968  0.2345980405807495  1.0000
  Co  Co1       1.0  0.7018453478813171  0.055170439183712006  0.06995582580566406  1.0000
  Co  Co2       1.0  0.7055464386940002  0.06200728565454483  0.5646836757659912  1.0000
  Co  Co3       1.0  0.3716054856777191  0.3949003517627716  0.904544472694397  1.0000
  Co  Co4       1.0  0.03868665546178818  0.7285804748535157  0.7351592779159546  1.0000
  Co  Co5       1.0  0.37563085556030273  0.40241929888725286  0.39942091703414917  1.0000
