data_image0
_chemical_formula_structural       MnVMn2OMnO2MnO7
_chemical_formula_sum              "Mn5 V1 O10"
_cell_length_a       5.836419234224997
_cell_length_b       5.957229109420877
_cell_length_c       5.8090972900390625
_cell_angle_alpha    72.03079880232393
_cell_angle_beta     81.70118651455667
_cell_angle_gamma    62.67752351629479

_space_group_name_H-M_alt    "P 1"
_space_group_IT_number       1

loop_
  _space_group_symop_operation_xyz
  'x, y, z'

loop_
  _atom_site_type_symbol
  _atom_site_label
  _atom_site_symmetry_multiplicity
  _atom_site_fract_x
  _atom_site_fract_y
  _atom_site_fract_z
  _atom_site_occupancy
  Mn  Mn1       1.0  0.8590931296348572  0.44094178080558777  0.08958983421325684  1.0000
  V   V1        1.0  0.18054795265197743  0.763490378856659  0.13547493517398834  1.0000
  Mn  Mn2       1.0  0.5181435346603394  0.6070578694343567  0.6096911430358887  1.0000
  Mn  Mn3       1.0  0.5132476687431335  0.10655222088098527  0.11750546842813492  1.0000
  O   O1        1.0  0.8218722939491272  0.10789021104574205  0.2553806006908417  1.0000
  Mn  Mn4       1.0  0.20049400627613068  0.2645573914051056  0.6214980483055115  1.0000
  O   O2        1.0  0.46989893913269043  0.9554755687713623  0.5391165614128113  1.0000
  O   O3        1.0  0.9146177768707275  0.816689670085907  0.9521052241325378  1.0000
  Mn  Mn5       1.0  0.8352506160736084  0.9460740685462953  0.6030172109603881  1.0000
  O   O4        1.0  0.8602816462516784  0.5103605389595033  0.7089511752128601  1.0000
  O   O5        1.0  0.4311957061290741  0.5739309787750244  0.9487344026565552  1.0000
  O   O6        1.0  0.5789432525634766  0.658343493938446  0.2751738131046295  1.0000
  O   O7        1.0  0.5646747946739197  0.256531298160553  0.6923905611038208  1.0000
  O   O8        1.0  0.17544704675674438  0.7144066691398621  0.4960721433162689  1.0000
  O   O9        1.0  0.2119998037815094  0.08031022548675537  0.9723801612854004  1.0000
  O   O10       1.0  0.15727289021015167  0.4075174331665039  0.27712514996528625  1.0000
