data_image0
_chemical_formula_structural       CuONaFe3O6
_chemical_formula_sum              "Cu1 O7 Na1 Fe3"
_cell_length_a       3.1724011534624523
_cell_length_b       5.782327752720016
_cell_length_c       8.056588172912598
_cell_angle_alpha    98.23749716593282
_cell_angle_beta     101.46789678852609
_cell_angle_gamma    89.93885182741394

_space_group_name_H-M_alt    "P 1"
_space_group_IT_number       1

loop_
  _space_group_symop_operation_xyz
  'x, y, z'

loop_
  _atom_site_type_symbol
  _atom_site_label
  _atom_site_symmetry_multiplicity
  _atom_site_fract_x
  _atom_site_fract_y
  _atom_site_fract_z
  _atom_site_occupancy
  Cu  Cu1       1.0  0.8287247419357299  0.14394235610961917  0.7593625783920288  1.0000
  O   O1        1.0  0.1334591805934906  0.4648751616477967  0.369051456451416  1.0000
  Na  Na1       1.0  0.7491651773452758  0.6393017768859864  0.5992909073829651  1.0000
  Fe  Fe1       1.0  0.16619548201560974  0.15866486728191376  0.4345720112323761  1.0000
  Fe  Fe2       1.0  0.023894958198070523  0.5576466917991638  0.1503884345293045  1.0000
  Fe  Fe3       1.0  0.47596374154090876  0.9929362535476686  0.054918915033340454  1.0000
  O   O2        1.0  0.4726083576679229  0.6439569592475891  0.04589047655463219  1.0000
  O   O3        1.0  0.9499974846839904  0.2240899205207825  0.003322671866044402  1.0000
  O   O4        1.0  0.05773625522851943  0.9473193883895874  0.21638546884059906  1.0000
  O   O5        1.0  0.7078508734703063  0.019021918997168544  0.5187639594078064  1.0000
  O   O6        1.0  0.34840819239616394  0.9292695522308351  0.7990244626998901  1.0000
  O   O7        1.0  0.29545265436172485  0.33027443289756775  0.6918944120407104  1.0000
