data_image0
_chemical_formula_structural       CrVMnO4VO4
_chemical_formula_sum              "Cr1 V2 Mn1 O8"
_cell_length_a       4.906857763221799
_cell_length_b       5.203585593601188
_cell_length_c       6.467602729797363
_cell_angle_alpha    105.89355827437456
_cell_angle_beta     103.97666483523409
_cell_angle_gamma    110.04712525064242

_space_group_name_H-M_alt    "P 1"
_space_group_IT_number       1

loop_
  _space_group_symop_operation_xyz
  'x, y, z'

loop_
  _atom_site_type_symbol
  _atom_site_label
  _atom_site_symmetry_multiplicity
  _atom_site_fract_x
  _atom_site_fract_y
  _atom_site_fract_z
  _atom_site_occupancy
  Cr  Cr1       1.0  0.6270644664764404  0.07424849271774292  0.20967070758342746  1.0000
  V   V1        1.0  0.32468608021736145  0.7716558575630188  0.6038417816162109  1.0000
  Mn  Mn1       1.0  0.4860287308692932  0.43485787510871887  0.9284213781356813  1.0000
  O   O1        1.0  1.2568198144669045e-06  0.44863307476043707  0.43291175365448004  1.0000
  O   O2        1.0  0.7431318163871765  0.14764893054962158  0.9371594190597535  1.0000
  O   O3        1.0  0.3545836508274079  0.27794995903968817  0.14841027557849887  1.0000
  O   O4        1.0  0.14941181242465973  0.042264822870492935  0.706674635410309  1.0000
  V   V2        1.0  0.9885022044181824  0.9367613792419434  0.9323925375938417  1.0000
  O   O5        1.0  0.23564016819000255  0.7274366021156312  0.9352530241012574  1.0000
  O   O6        1.0  0.8377984166145325  0.8098228573799133  0.148178368806839  1.0000
  O   O7        1.0  0.47925814986228943  0.9244222640991212  0.43432718515396124  1.0000
  O   O8        1.0  0.6040194630622864  0.6060752868652345  0.7064162492752076  1.0000
