data_image0
_chemical_formula_structural       FeNiFe2Rh2Fe2Rh2FeRh
_chemical_formula_sum              "Fe6 Ni1 Rh5"
_cell_length_a       3.661987152588817
_cell_length_b       7.0766223260227
_cell_length_c       7.075428009033203
_cell_angle_alpha    63.793227919828524
_cell_angle_beta     74.96998545471462
_cell_angle_gamma    75.02742059307647

_space_group_name_H-M_alt    "P 1"
_space_group_IT_number       1

loop_
  _space_group_symop_operation_xyz
  'x, y, z'

loop_
  _atom_site_type_symbol
  _atom_site_label
  _atom_site_symmetry_multiplicity
  _atom_site_fract_x
  _atom_site_fract_y
  _atom_site_fract_z
  _atom_site_occupancy
  Fe  Fe1       1.0  0.1414659321308136  0.5163193941116333  0.057576000690460205  1.0000
  Ni  Ni1       1.0  0.14512594044208527  0.01209490932524204  0.553840160369873  1.0000
  Fe  Fe2       1.0  0.9796397686004638  0.925607681274414  0.972222089767456  1.0000
  Fe  Fe3       1.0  0.9795883297920226  0.4305267930030823  0.4668380916118622  1.0000
  Rh  Rh1       1.0  0.31251373887062067  0.09063176810741423  0.14145100116729736  1.0000
  Rh  Rh2       1.0  0.6413902640342711  0.7618064880371093  0.8116437792778015  1.0000
  Fe  Fe4       1.0  0.47785803675651545  0.6801078915596007  0.22119711339473724  1.0000
  Fe  Fe5       1.0  0.8120051622390746  0.34551712870597834  0.8872243165969849  1.0000
  Rh  Rh3       1.0  0.47740924358367914  0.18043966591358182  0.7215712070465088  1.0000
  Rh  Rh4       1.0  0.6418551802635192  0.27035114169120783  0.3033071458339691  1.0000
  Fe  Fe6       1.0  0.8106334805488585  0.8462150692939757  0.38860243558883667  1.0000
  Rh  Rh5       1.0  0.31234574317932123  0.6004202365875244  0.6322454810142517  1.0000
