data_image0
_chemical_formula_structural       Li2MnSeMnCrSe5
_chemical_formula_sum              "Li2 Mn2 Se6 Cr1"
_cell_length_a       6.3312328993698435
_cell_length_b       6.330517387004966
_cell_length_c       6.763125419616699
_cell_angle_alpha    99.26170452422383
_cell_angle_beta     99.26837769616043
_cell_angle_gamma    119.58062010596916

_space_group_name_H-M_alt    "P 1"
_space_group_IT_number       1

loop_
  _space_group_symop_operation_xyz
  'x, y, z'

loop_
  _atom_site_type_symbol
  _atom_site_label
  _atom_site_symmetry_multiplicity
  _atom_site_fract_x
  _atom_site_fract_y
  _atom_site_fract_z
  _atom_site_occupancy
  Li  Li1       1.0  0.6924932599067688  0.6094152927398682  0.4413310587406158  1.0000
  Li  Li2       1.0  0.35437357425689686  0.9481663703918456  0.44109404087066645  1.0000
  Mn  Mn1       1.0  0.19115199148654938  0.11116616427898407  0.9412349462509154  1.0000
  Se  Se1       1.0  0.7787287831306458  0.03359609097242355  0.7203221917152405  1.0000
  Mn  Mn2       1.0  0.8560051321983337  0.446384072303772  0.9413160681724547  1.0000
  Cr  Cr1       1.0  0.5235875248908997  0.7787054181098938  0.941244602203369  1.0000
  Se  Se2       1.0  0.9291010499000549  0.8505042791366577  0.1650207340717316  1.0000
  Se  Se3       1.0  0.11845657229423523  0.7070407271385193  0.7182228565216064  1.0000
  Se  Se4       1.0  0.2686683237552643  0.5241315364837646  0.16242919862270355  1.0000
  Se  Se5       1.0  0.5953659415245056  0.18409691751003265  0.1648293286561966  1.0000
  Se  Se6       1.0  0.451690137386322  0.3734273910522461  0.7182470560073853  1.0000
