data_image0
_chemical_formula_structural       Nd2Fe2Nd2Fe6
_chemical_formula_sum              "Nd4 Fe8"
_cell_length_a       5.297477322263089
_cell_length_b       5.297207599357786
_cell_length_c       8.501701354980469
_cell_angle_alpha    90.0173853364781
_cell_angle_beta     89.99023533442954
_cell_angle_gamma    120.0449743895026

_space_group_name_H-M_alt    "P 1"
_space_group_IT_number       1

loop_
  _space_group_symop_operation_xyz
  'x, y, z'

loop_
  _atom_site_type_symbol
  _atom_site_label
  _atom_site_symmetry_multiplicity
  _atom_site_fract_x
  _atom_site_fract_y
  _atom_site_fract_z
  _atom_site_occupancy
  Nd  Nd1       1.0  0.4306024014949798  0.5030145049095154  0.8394927382469177  1.0000
  Nd  Nd2       1.0  0.4305904805660247  0.5032227635383606  0.22242332994937897  1.0000
  Fe  Fe1       1.0  0.7787535786628723  0.6769657731056213  0.5308738946914673  1.0000
  Fe  Fe2       1.0  0.2562716603279114  0.15408997237682343  0.5307949185371399  1.0000
  Nd  Nd3       1.0  0.7638334035873413  0.16942094266414642  0.33936941623687744  1.0000
  Nd  Nd4       1.0  0.7635853886604309  0.1697075963020325  0.7225745916366577  1.0000
  Fe  Fe3       1.0  0.25648871064186096  0.6769382357597351  0.5310896039009094  1.0000
  Fe  Fe4       1.0  0.4149394035339355  0.995330274105072  0.030726121738553047  1.0000
  Fe  Fe5       1.0  0.9379802346229552  0.9957631826400757  0.031007494777441025  1.0000
  Fe  Fe6       1.0  0.09683049470186234  0.8361454606056213  0.28069770336151123  1.0000
  Fe  Fe7       1.0  0.09672205150127411  0.8361673951148987  0.7810407280921936  1.0000
  Fe  Fe8       1.0  0.9379949569702147  0.5185468792915344  0.03098503313958645  1.0000
