data_image0
_chemical_formula_structural       Mn2FeGaMnFeHGaMn2PtMn
_chemical_formula_sum              "Mn6 Fe2 Ga2 H1 Pt1"
_cell_length_a       3.7681304462446605
_cell_length_b       5.181890125025005
_cell_length_c       7.773050785064697
_cell_angle_alpha    90.13956376384085
_cell_angle_beta     89.98417012605925
_cell_angle_gamma    89.93201479253565

_space_group_name_H-M_alt    "P 1"
_space_group_IT_number       1

loop_
  _space_group_symop_operation_xyz
  'x, y, z'

loop_
  _atom_site_type_symbol
  _atom_site_label
  _atom_site_symmetry_multiplicity
  _atom_site_fract_x
  _atom_site_fract_y
  _atom_site_fract_z
  _atom_site_occupancy
  Mn  Mn1       1.0  0.9789342880249023  0.7260720729827881  0.025830138474702835  1.0000
  Mn  Mn2       1.0  0.9791792035102844  0.7148393392562866  0.6794769763946533  1.0000
  Fe  Fe1       1.0  0.9787930846214294  0.22299826145172116  0.3578890264034271  1.0000
  Ga  Ga1       1.0  0.4793916344642639  0.4706577062606811  0.8495864272117615  1.0000
  Mn  Mn3       1.0  0.4791424870491028  0.9706059694290161  0.8495594263076782  1.0000
  Fe  Fe2       1.0  0.9787538051605225  0.7207465171813965  0.359669953584671  1.0000
  H   H1        1.0  0.9789986610412598  0.9703852534294128  0.8554880023002625  1.0000
  Ga  Ga2       1.0  0.47925305366516113  0.9708318114280702  0.5083913207054138  1.0000
  Mn  Mn4       1.0  0.9793123602867126  0.21856711804866794  0.02422219142317772  1.0000
  Mn  Mn5       1.0  0.9791314005851746  0.22312222421169278  0.677954375743866  1.0000
  Pt  Pt1       1.0  0.4789927303791046  0.47109866142272944  0.18669889867305756  1.0000
  Mn  Mn6       1.0  0.4786798655986786  0.47144737839698786  0.5180765986442566  1.0000
