data_image0
_chemical_formula_structural       LiO2FeO2TiLiFe2LiO4Fe2O
_chemical_formula_sum              "Li3 O9 Fe5 Ti1"
_cell_length_a       4.170583081796
_cell_length_b       5.2205367073774696
_cell_length_c       9.01423168182373
_cell_angle_alpha    73.50750501554438
_cell_angle_beta     76.64101929598989
_cell_angle_gamma    66.52387024037533

_space_group_name_H-M_alt    "P 1"
_space_group_IT_number       1

loop_
  _space_group_symop_operation_xyz
  'x, y, z'

loop_
  _atom_site_type_symbol
  _atom_site_label
  _atom_site_symmetry_multiplicity
  _atom_site_fract_x
  _atom_site_fract_y
  _atom_site_fract_z
  _atom_site_occupancy
  Li  Li1       1.0  0.03325324133038521  0.640442967414856  0.946295976638794  1.0000
  O   O1        1.0  0.23337683081626892  0.7991757392883301  0.3868112862110138  1.0000
  O   O2        1.0  0.5325359106063843  0.29898330569267273  0.2888505458831787  1.0000
  Fe  Fe1       1.0  0.71077561378479  0.16826044023036957  0.06255123764276505  1.0000
  O   O3        1.0  0.8737003803253174  0.38618192076683044  0.5202776789665222  1.0000
  O   O4        1.0  0.8842716813087463  0.71238774061203  0.17023153603076935  1.0000
  Ti  Ti1       1.0  0.7012265920639038  0.502966046333313  0.7456225156784058  1.0000
  Li  Li2       1.0  0.03537930920720095  0.9486210942268373  0.635692834854126  1.0000
  Fe  Fe2       1.0  0.0481158457696438  0.2693187892436981  0.2871350944042206  1.0000
  Fe  Fe3       1.0  0.38346120715141296  0.7232394814491272  0.1613854318857193  1.0000
  Li  Li3       1.0  0.36935296654701233  0.0696427971124649  0.8462686538696289  1.0000
  O   O5        1.0  0.8564420938491821  0.10863858461380005  0.8348410725593567  1.0000
  O   O6        1.0  0.5495847463607788  0.93739914894104  0.6200889348983765  1.0000
  O   O7        1.0  0.22160387039184568  0.13563521206378937  0.07510541379451752  1.0000
  O   O8        1.0  0.20884217321872708  0.5095695853233337  0.7267957329750061  1.0000
  Fe  Fe4       1.0  0.7113969922065735  0.8341333270072937  0.3978176414966583  1.0000
  Fe  Fe5       1.0  0.3832781612873078  0.36922457814216614  0.518254816532135  1.0000
  O   O9        1.0  0.5439381003379822  0.6239870190620422  0.9406975507736206  1.0000
