data_image0
_chemical_formula_structural       Co2NCoN6
_chemical_formula_sum              "Co3 N7"
_cell_length_a       2.76893490984803
_cell_length_b       5.073832893457491
_cell_length_c       7.546009063720703
_cell_angle_alpha    111.18262417118727
_cell_angle_beta     90.76890425040625
_cell_angle_gamma    90.15572395053171

_space_group_name_H-M_alt    "P 1"
_space_group_IT_number       1

loop_
  _space_group_symop_operation_xyz
  'x, y, z'

loop_
  _atom_site_type_symbol
  _atom_site_label
  _atom_site_symmetry_multiplicity
  _atom_site_fract_x
  _atom_site_fract_y
  _atom_site_fract_z
  _atom_site_occupancy
  Co  Co1       1.0  0.2241387665271759  0.38999223709106445  0.5335313677787781  1.0000
  Co  Co2       1.0  0.7224805355072021  0.7349881529808044  0.3086024522781372  1.0000
  N   N1        1.0  0.7236733436584473  0.21109746396541595  0.6201817393302917  1.0000
  Co  Co3       1.0  0.7234837412834167  0.9606625437736512  0.7492145895957947  1.0000
  N   N2        1.0  0.7240180969238281  0.11089093983173372  0.4437597990036011  1.0000
  N   N3        1.0  0.7219393849372864  0.8170420527458192  0.08140554279088977  1.0000
  N   N4        1.0  0.7238375544548035  0.2670147120952606  0.9742193222045898  1.0000
  N   N5        1.0  0.723701536655426  0.7754824757575989  0.9259448647499084  1.0000
  N   N6        1.0  0.7223589420318604  0.6490596532821655  0.5295920968055725  1.0000
  N   N7        1.0  0.7222239971160889  0.3714116215705872  0.13337452709674835  1.0000
