data_image0
_chemical_formula_structural       Fe2NbFeTi2Fe4TiFe
_chemical_formula_sum              "Fe8 Nb1 Ti3"
_cell_length_a       4.78998096135003
_cell_length_b       4.790370031849933
_cell_length_c       7.803956985473633
_cell_angle_alpha    89.99220242892284
_cell_angle_beta     90.01000190157015
_cell_angle_gamma    120.05578022809452

_space_group_name_H-M_alt    "P 1"
_space_group_IT_number       1

loop_
  _space_group_symop_operation_xyz
  'x, y, z'

loop_
  _atom_site_type_symbol
  _atom_site_label
  _atom_site_symmetry_multiplicity
  _atom_site_fract_x
  _atom_site_fract_y
  _atom_site_fract_z
  _atom_site_occupancy
  Fe  Fe1       1.0  0.0728442594408989  0.5341004729270935  0.05861933901906014  1.0000
  Fe  Fe2       1.0  0.7327218055725098  0.36392492055892944  0.30963495373725897  1.0000
  Nb  Nb1       1.0  0.06606032699346542  0.030605090782046318  0.24576626718044284  1.0000
  Fe  Fe3       1.0  0.5626485347747803  0.02383391186594963  0.05862702801823617  1.0000
  Ti  Ti1       1.0  0.3994911015033722  0.6971056461334229  0.7472698092460633  1.0000
  Ti  Ti2       1.0  0.0661335214972496  0.030604867264628414  0.8689502477645875  1.0000
  Fe  Fe4       1.0  0.9024198651313782  0.19415324926376346  0.5600480437278749  1.0000
  Fe  Fe5       1.0  0.5626655220985413  0.5338940620422363  0.058646894991397865  1.0000
  Fe  Fe6       1.0  0.3935715854167938  0.1942596733570099  0.5602218508720399  1.0000
  Fe  Fe7       1.0  0.9023851156234741  0.7033937573432922  0.5601778030395509  1.0000
  Ti  Ti3       1.0  0.3995167911052704  0.6975069642066956  0.3734822869300843  1.0000
  Fe  Fe8       1.0  0.7328460812568665  0.3639073967933655  0.8091975450515748  1.0000
