data_image0
_chemical_formula_structural       Mn2FeMn2N2MnN4
_chemical_formula_sum              "Mn5 Fe1 N6"
_cell_length_a       4.965009684187331
_cell_length_b       4.967354374780412
_cell_length_c       4.9789137840271
_cell_angle_alpha    99.61689481748515
_cell_angle_beta     99.61195048269488
_cell_angle_gamma    119.82819401345192

_space_group_name_H-M_alt    "P 1"
_space_group_IT_number       1

loop_
  _space_group_symop_operation_xyz
  'x, y, z'

loop_
  _atom_site_type_symbol
  _atom_site_label
  _atom_site_symmetry_multiplicity
  _atom_site_fract_x
  _atom_site_fract_y
  _atom_site_fract_z
  _atom_site_occupancy
  Mn  Mn1       1.0  0.022183526307344437  0.9372772574424744  0.8595298528671265  1.0000
  Mn  Mn2       1.0  0.3559719920158386  0.6038233041763306  0.8594451546669006  1.0000
  Fe  Fe1       1.0  0.521761953830719  0.43753597140312195  0.3596859872341156  1.0000
  Mn  Mn3       1.0  0.8546741604804993  0.10524099320173265  0.35916128754615784  1.0000
  Mn  Mn4       1.0  0.1896543800830841  0.7702460885047913  0.35970339179039  1.0000
  N   N1        1.0  0.43889909982681274  0.02099972777068615  0.10984701663255692  1.0000
  N   N2        1.0  0.77406907081604  0.689321756362915  0.11083313822746277  1.0000
  Mn  Mn5       1.0  0.6884140372276306  0.27155980467796326  0.8591265082359314  1.0000
  N   N3        1.0  0.10469136387109756  0.3535629212856293  0.10904859006404877  1.0000
  N   N4        1.0  0.939521849155426  0.5206822752952576  0.609477698802948  1.0000
  N   N5        1.0  0.2704595625400543  0.18633067607879641  0.6082262396812439  1.0000
  N   N6        1.0  0.6056382656097412  0.854476809501648  0.6096035242080688  1.0000
