data_image0
_chemical_formula_structural       MoFe5MoFe5
_chemical_formula_sum              "Mo2 Fe10"
_cell_length_a       4.663569698889794
_cell_length_b       4.66277799676092
_cell_length_c       7.595187664031982
_cell_angle_alpha    90.02840243274983
_cell_angle_beta     89.96804404737493
_cell_angle_gamma    120.01098814533451

_space_group_name_H-M_alt    "P 1"
_space_group_IT_number       1

loop_
  _space_group_symop_operation_xyz
  'x, y, z'

loop_
  _atom_site_type_symbol
  _atom_site_label
  _atom_site_symmetry_multiplicity
  _atom_site_fract_x
  _atom_site_fract_y
  _atom_site_fract_z
  _atom_site_occupancy
  Mo  Mo1       1.0  0.7635907530784607  0.7214413285255432  0.29277852177619934  1.0000
  Fe  Fe1       1.0  0.09698569029569626  0.3884214758872986  0.3609480559825897  1.0000
  Fe  Fe2       1.0  0.26808467507362366  0.2167035937309265  0.10903759300708771  1.0000
  Fe  Fe3       1.0  0.7640064358711243  0.7209297418594359  0.9245464205741882  1.0000
  Fe  Fe4       1.0  0.7548363208770752  0.21669615805149078  0.10914865881204605  1.0000
  Fe  Fe5       1.0  0.4398709833621979  0.5592334270477295  0.609214186668396  1.0000
  Mo  Mo2       1.0  0.43082380294799805  0.05418738722801208  0.793315589427948  1.0000
  Fe  Fe6       1.0  0.26800173521041865  0.7295086979866027  0.10909485816955566  1.0000
  Fe  Fe7       1.0  0.9260926246643066  0.5590766668319702  0.6088443994522095  1.0000
  Fe  Fe8       1.0  0.09747941792011261  0.38756969571113586  0.8599057197570801  1.0000
  Fe  Fe9       1.0  0.926052987575531  0.04541103169322014  0.6089950203895569  1.0000
  Fe  Fe10      1.0  0.4303390085697174  0.054768487811088555  0.4240630865097046  1.0000
