data_image0
_chemical_formula_structural       O2FeCrMn2CrOFeO5
_chemical_formula_sum              "O8 Fe2 Cr2 Mn2"
_cell_length_a       5.962505305058209
_cell_length_b       5.953197606370544
_cell_length_c       6.138243198394775
_cell_angle_alpha    119.31803568591779
_cell_angle_beta     118.3669188690545
_cell_angle_gamma    90.38768321184492

_space_group_name_H-M_alt    "P 1"
_space_group_IT_number       1

loop_
  _space_group_symop_operation_xyz
  'x, y, z'

loop_
  _atom_site_type_symbol
  _atom_site_label
  _atom_site_symmetry_multiplicity
  _atom_site_fract_x
  _atom_site_fract_y
  _atom_site_fract_z
  _atom_site_occupancy
  O   O1        1.0  0.31212958693504333  0.3354932367801666  0.17470569908618927  1.0000
  O   O2        1.0  0.7271833419799805  0.784955620765686  0.08908231556415558  1.0000
  Fe  Fe1       1.0  0.1422267109155655  0.9322702884674072  0.3822862207889557  1.0000
  Cr  Cr1       1.0  0.5194686651229858  0.06009862944483757  0.13190616667270658  1.0000
  Mn  Mn1       1.0  0.5197986364364624  0.5605369210243225  0.13162027299404144  1.0000
  Mn  Mn2       1.0  0.01895155757665634  0.559691309928894  0.6323463916778564  1.0000
  Cr  Cr2       1.0  0.5194308161735535  0.5598470568656921  0.6314460635185242  1.0000
  O   O3        1.0  0.7434230446815491  0.3212685286998749  0.13670751452445984  1.0000
  Fe  Fe2       1.0  0.8961151242256165  0.18753838539123535  0.882489800453186  1.0000
  O   O4        1.0  0.2877952456474304  0.8108466863632203  0.6742886304855347  1.0000
  O   O5        1.0  0.26289138197898865  0.3411487936973572  0.6349267363548279  1.0000
  O   O6        1.0  0.7766823768615723  0.7785153388977051  0.6288111805915833  1.0000
  O   O7        1.0  0.7506570816040039  0.30853644013404846  0.5893621444702147  1.0000
  O   O8        1.0  0.2963500916957855  0.7983704209327698  0.12781909108161926  1.0000
