data_image0
_chemical_formula_structural       Fe2Co2FeCo7
_chemical_formula_sum              "Fe3 Co9"
_cell_length_a       2.8271586901026717
_cell_length_b       5.691123297788135
_cell_length_c       8.533392906188965
_cell_angle_alpha    89.58997938979005
_cell_angle_beta     90.00118412725867
_cell_angle_gamma    89.99075442887687

_space_group_name_H-M_alt    "P 1"
_space_group_IT_number       1

loop_
  _space_group_symop_operation_xyz
  'x, y, z'

loop_
  _atom_site_type_symbol
  _atom_site_label
  _atom_site_symmetry_multiplicity
  _atom_site_fract_x
  _atom_site_fract_y
  _atom_site_fract_z
  _atom_site_occupancy
  Fe  Fe1       1.0  0.32165777683258057  0.43694150447845453  0.42915940284729004  1.0000
  Fe  Fe2       1.0  0.8215498924255371  0.18372592329978943  0.25982964038848877  1.0000
  Co  Co1       1.0  0.3212587833404541  0.4354278147220611  0.7647554278373718  1.0000
  Co  Co2       1.0  0.8216172456741333  0.6801809668540955  0.26218193769454956  1.0000
  Fe  Fe3       1.0  0.32136717438697815  0.9331029057502745  0.7602548599243164  1.0000
  Co  Co3       1.0  0.3218265175819397  0.936754584312439  0.09802111983299255  1.0000
  Co  Co4       1.0  0.8214021921157837  0.6873326301574707  0.9273775815963745  1.0000
  Co  Co5       1.0  0.32199978828430176  0.4317194521427154  0.0937260165810585  1.0000
  Co  Co6       1.0  0.8212144374847412  0.18533051013946533  0.596319317817688  1.0000
  Co  Co7       1.0  0.8208787441253662  0.6835551857948302  0.5941247940063477  1.0000
  Co  Co8       1.0  0.3214382231235504  0.9379443526268004  0.4248783588409424  1.0000
  Co  Co9       1.0  0.8214603662490845  0.18010573089122772  0.9227446913719177  1.0000
