data_image0
_chemical_formula_structural       MnGaMn2NGaMn2GaMn2N
_chemical_formula_sum              "Mn7 Ga3 N2"
_cell_length_a       3.7637744078089583
_cell_length_b       3.79476227740085
_cell_length_c       9.759804725646973
_cell_angle_alpha    101.30457374415991
_cell_angle_beta     90.0047289956196
_cell_angle_gamma    90.06340032075742

_space_group_name_H-M_alt    "P 1"
_space_group_IT_number       1

loop_
  _space_group_symop_operation_xyz
  'x, y, z'

loop_
  _atom_site_type_symbol
  _atom_site_label
  _atom_site_symmetry_multiplicity
  _atom_site_fract_x
  _atom_site_fract_y
  _atom_site_fract_z
  _atom_site_occupancy
  Mn  Mn1       1.0  0.2896685004234314  0.7632691860198976  0.31297001242637634  1.0000
  Ga  Ga1       1.0  0.7888879179954529  0.464966893196106  0.7150511741638184  1.0000
  Mn  Mn2       1.0  0.289231538772583  0.9606894254684449  0.705100417137146  1.0000
  Mn  Mn3       1.0  0.28899043798446655  0.5620719194412233  0.9091885685920715  1.0000
  N   N1        1.0  0.2894867956638336  0.26292967796325684  0.312716007232666  1.0000
  Ga  Ga2       1.0  0.7896465063095093  0.86056387424469  0.5069209337234497  1.0000
  Mn  Mn4       1.0  0.28931310772895813  0.36472997069358826  0.5164012908935547  1.0000
  Mn  Mn5       1.0  0.2893475592136383  0.162603959441185  0.11103635281324387  1.0000
  Ga  Ga3       1.0  0.789427638053894  0.6626370549201966  0.11100541055202484  1.0000
  Mn  Mn6       1.0  0.7888782620429993  0.06439173221588135  0.9150437116622925  1.0000
  Mn  Mn7       1.0  0.7898428440093994  0.2603392601013184  0.3065849244594574  1.0000
  N   N2        1.0  0.2889682352542877  0.062453337013721466  0.9091721177101135  1.0000
