data_image0
_chemical_formula_structural       Cl2Fe2ClFeCl5
_chemical_formula_sum              "Cl8 Fe3"
_cell_length_a       5.958500671658177
_cell_length_b       7.354734344903549
_cell_length_c       7.356160640716553
_cell_angle_alpha    122.180063335038
_cell_angle_beta     89.71870117220868
_cell_angle_gamma    90.32272211007977

_space_group_name_H-M_alt    "P 1"
_space_group_IT_number       1

loop_
  _space_group_symop_operation_xyz
  'x, y, z'

loop_
  _atom_site_type_symbol
  _atom_site_label
  _atom_site_symmetry_multiplicity
  _atom_site_fract_x
  _atom_site_fract_y
  _atom_site_fract_z
  _atom_site_occupancy
  Cl  Cl1       1.0  0.5897650122642517  0.33354488015174866  0.14310786128044128  1.0000
  Cl  Cl2       1.0  0.9189789891242981  0.05490309372544289  0.4235997200012207  1.0000
  Fe  Fe1       1.0  0.7325385212898254  0.6751711368560791  0.25034525990486145  1.0000
  Fe  Fe2       1.0  0.7333540916442871  0.2275869995355606  0.802915632724762  1.0000
  Cl  Cl3       1.0  0.8766733407974243  0.5685657262802124  0.90989089012146  1.0000
  Fe  Fe3       1.0  0.2330276072025299  0.950991690158844  0.5271217226982117  1.0000
  Cl  Cl4       1.0  0.4034157395362854  0.8238895535469056  0.20158332586288458  1.0000
  Cl  Cl5       1.0  0.06226999685168266  0.6254804730415344  0.39964276552200323  1.0000
  Cl  Cl6       1.0  0.5470321178436279  0.8473997116088867  0.6303943395614624  1.0000
  Cl  Cl7       1.0  0.40352949500083923  0.2767179310321808  0.6545925140380859  1.0000
  Cl  Cl8       1.0  0.061866290867328644  0.07817727327346802  0.8522121906280518  1.0000
