data_image0
_chemical_formula_structural       LiMnFLiMnF6MnF3
_chemical_formula_sum              "Li2 Mn3 F10"
_cell_length_a       5.290879477362795
_cell_length_b       5.257645892702016
_cell_length_c       7.85113000869751
_cell_angle_alpha    72.88066416466049
_cell_angle_beta     69.77858587860179
_cell_angle_gamma    94.32732339759552

_space_group_name_H-M_alt    "P 1"
_space_group_IT_number       1

loop_
  _space_group_symop_operation_xyz
  'x, y, z'

loop_
  _atom_site_type_symbol
  _atom_site_label
  _atom_site_symmetry_multiplicity
  _atom_site_fract_x
  _atom_site_fract_y
  _atom_site_fract_z
  _atom_site_occupancy
  Li  Li1       1.0  0.9025110006332397  0.9527865052223206  0.0955764427781105  1.0000
  Mn  Mn1       1.0  0.3720512390136719  0.3218660354614258  0.251802533864975  1.0000
  F   F1        1.0  0.10580841451883316  0.02409064956009388  0.2420401722192764  1.0000
  Li  Li2       1.0  0.8417182564735413  0.6904138922691345  0.40789127349853516  1.0000
  Mn  Mn2       1.0  0.8730130791664124  0.3218466937541961  0.751372218132019  1.0000
  F   F2        1.0  0.7313408255577087  0.26086634397506714  0.022850653156638145  1.0000
  F   F3        1.0  0.0338495671749115  0.9545798897743225  0.8376033306121826  1.0000
  F   F4        1.0  0.4373970627784729  0.05963409692049026  0.45690903067588806  1.0000
  F   F5        1.0  0.3082410395145416  0.5830094814300536  0.0460006482899189  1.0000
  F   F6        1.0  0.6388829350471497  0.6189054250717163  0.2616080343723297  1.0000
  F   F7        1.0  0.5379828214645386  0.11627170443534851  0.7920114398002625  1.0000
  Mn  Mn3       1.0  0.37358659505844116  0.8213291764259338  0.751945972442627  1.0000
  F   F8        1.0  0.013467388227581978  0.38272422552108765  0.4797365069389343  1.0000
  F   F9        1.0  0.7128426432609558  0.6893861293792725  0.6646720767021179  1.0000
  F   F10       1.0  0.2092619240283966  0.5260545015335083  0.7101002335548401  1.0000
