data_image0
_chemical_formula_structural       Mn2O2HLiO2FH
_chemical_formula_sum              "Mn2 O4 H2 Li1 F1"
_cell_length_a       3.118557008366781
_cell_length_b       3.1189324313855544
_cell_length_c       11.648300170898438
_cell_angle_alpha    89.94617378588532
_cell_angle_beta     90.13089624789721
_cell_angle_gamma    120.03880044511337

_space_group_name_H-M_alt    "P 1"
_space_group_IT_number       1

loop_
  _space_group_symop_operation_xyz
  'x, y, z'

loop_
  _atom_site_type_symbol
  _atom_site_label
  _atom_site_symmetry_multiplicity
  _atom_site_fract_x
  _atom_site_fract_y
  _atom_site_fract_z
  _atom_site_occupancy
  Mn  Mn1       1.0  0.9919202923774718  0.6130765676498413  0.5746480822563171  1.0000
  Mn  Mn2       1.0  0.6603356003761292  0.9472515583038331  0.12607532739639282  1.0000
  O   O1        1.0  0.3256373405456543  0.2802278697490692  0.6437962651252747  1.0000
  O   O2        1.0  0.9939115047454833  0.6127061247825624  0.2264508605003357  1.0000
  H   H1        1.0  0.994308054447174  0.6119563579559326  0.311214417219162  1.0000
  Li  Li1       1.0  0.32594355940818787  0.27992314100265503  0.8416532278060913  1.0000
  O   O3        1.0  0.659188985824585  0.9460076689720155  0.46434980630874634  1.0000
  O   O4        1.0  0.327420175075531  0.2808605134487152  0.06086815148591995  1.0000
  F   F1        1.0  0.9930704832077025  0.6134647727012634  0.8532518148422241  1.0000
  H   H2        1.0  0.3261464536190033  0.27875739336013794  0.38302379846572876  1.0000
