data_image0
_chemical_formula_structural       O2FeOSeFe2OFeOFe2OFe
_chemical_formula_sum              "O6 Fe7 Se1"
_cell_length_a       6.458090223920018
_cell_length_b       7.039147007107138
_cell_length_c       6.44380521774292
_cell_angle_alpha    57.06118583800423
_cell_angle_beta     63.181339409241666
_cell_angle_gamma    57.05942706964673

_space_group_name_H-M_alt    "P 1"
_space_group_IT_number       1

loop_
  _space_group_symop_operation_xyz
  'x, y, z'

loop_
  _atom_site_type_symbol
  _atom_site_label
  _atom_site_symmetry_multiplicity
  _atom_site_fract_x
  _atom_site_fract_y
  _atom_site_fract_z
  _atom_site_occupancy
  O   O1        1.0  0.7477380633354187  0.601567804813385  0.40043267607688904  1.0000
  O   O2        1.0  0.4011451005935669  0.5347280502319336  0.05659940093755715  1.0000
  Fe  Fe1       1.0  0.6824095249176025  0.45634540915489197  0.7803444862365723  1.0000
  O   O3        1.0  0.2744317054748535  0.0794367864727974  0.4732639193534851  1.0000
  Se  Se1       1.0  0.06394670158624649  0.561068594455719  0.7217410206794739  1.0000
  Fe  Fe2       1.0  0.6445171833038329  0.9842883348464967  0.2995215654373169  1.0000
  Fe  Fe3       1.0  0.682011067867279  0.98729145526886  0.7784041166305542  1.0000
  O   O4        1.0  0.8190036416053772  0.07870139181613922  0.9293913841247559  1.0000
  Fe  Fe4       1.0  0.20609407126903534  0.9142087697982788  0.8588120937347412  1.0000
  O   O5        1.0  0.3999280333518982  0.9132213592529297  0.05358891189098358  1.0000
  Fe  Fe5       1.0  0.6012799143791199  0.5339431166648865  0.24410268664360038  1.0000
  Fe  Fe6       1.0  0.12540720403194427  0.45723456144332886  0.3374668061733246  1.0000
  O   O6        1.0  0.7480127215385437  0.15709495544433594  0.3993121981620788  1.0000
  Fe  Fe7       1.0  0.12670721113681785  0.98449444770813  0.3368147611618042  1.0000
