data_image0
_chemical_formula_structural       FeCdFe2OCdFeO5
_chemical_formula_sum              "Fe4 Cd2 O6"
_cell_length_a       5.4988561057060314
_cell_length_b       5.533752913563021
_cell_length_c       5.598211765289307
_cell_angle_alpha    60.2657908396572
_cell_angle_beta     80.86851734199679
_cell_angle_gamma    71.57033965950974

_space_group_name_H-M_alt    "P 1"
_space_group_IT_number       1

loop_
  _space_group_symop_operation_xyz
  'x, y, z'

loop_
  _atom_site_type_symbol
  _atom_site_label
  _atom_site_symmetry_multiplicity
  _atom_site_fract_x
  _atom_site_fract_y
  _atom_site_fract_z
  _atom_site_occupancy
  Fe  Fe1       1.0  0.7579094767570494  0.7760031223297118  0.050674363970756614  1.0000
  Cd  Cd1       1.0  0.25755083560943604  0.2801136672496795  0.04307096078991892  1.0000
  Fe  Fe2       1.0  0.7576040029525756  0.11196429282426834  0.38010385632514954  1.0000
  Fe  Fe3       1.0  0.25710436701774597  0.6123261451721191  0.37956488132476807  1.0000
  O   O1        1.0  0.9811382293701171  0.7022457122802734  0.6972470879554749  1.0000
  Cd  Cd2       1.0  0.2576105892658233  0.943827748298645  0.7166618704795837  1.0000
  Fe  Fe4       1.0  0.7576379776000975  0.4480243921279907  0.7083196640014648  1.0000
  O   O2        1.0  0.5062286853790283  0.8385478854179382  0.3796338140964508  1.0000
  O   O3        1.0  0.009014639072120209  0.3859740793704986  0.3794509172439575  1.0000
  O   O4        1.0  0.9806064963340758  0.020389685407280922  0.061302974820137045  1.0000
  O   O5        1.0  0.5337837934494019  0.20454353094100952  0.6969479322433472  1.0000
  O   O6        1.0  0.5338754057884216  0.5224858522415161  0.061373550444841385  1.0000
