data_image0
_chemical_formula_structural       Co5NCoN3
_chemical_formula_sum              "Co6 N4"
_cell_length_a       2.687806424349622
_cell_length_b       5.541266054369094
_cell_length_c       6.186650276184082
_cell_angle_alpha    102.97924644997163
_cell_angle_beta     89.98825457899109
_cell_angle_gamma    90.05106499536777

_space_group_name_H-M_alt    "P 1"
_space_group_IT_number       1

loop_
  _space_group_symop_operation_xyz
  'x, y, z'

loop_
  _atom_site_type_symbol
  _atom_site_label
  _atom_site_symmetry_multiplicity
  _atom_site_fract_x
  _atom_site_fract_y
  _atom_site_fract_z
  _atom_site_occupancy
  Co  Co1       1.0  0.6177064776420593  0.8001206517219542  0.4228605031967163  1.0000
  Co  Co2       1.0  0.6179661154747009  0.5979130864143372  0.023907843977212906  1.0000
  Co  Co3       1.0  0.11787374317646027  0.8101216554641723  0.772057056427002  1.0000
  Co  Co4       1.0  0.11768977344036102  0.013631472364068031  0.16986089944839478  1.0000
  Co  Co5       1.0  0.11863288283348083  0.4058146476745605  0.46627065539360046  1.0000
  N   N1        1.0  0.6180289387702942  0.009851029142737389  0.9419950842857361  1.0000
  Co  Co6       1.0  0.6176308989524841  0.20487405359745026  0.727536141872406  1.0000
  N   N2        1.0  0.617500364780426  0.14550825953483582  0.39782795310020447  1.0000
  N   N3        1.0  0.11790357530117035  0.6008796691894531  0.2520349621772766  1.0000
  N   N4        1.0  0.11830867826938629  0.46540105342864985  0.7970890402793884  1.0000
