data_image0
_chemical_formula_structural       Fe3OMgFe4O5
_chemical_formula_sum              "Fe7 O6 Mg1"
_cell_length_a       3.0128424656773505
_cell_length_b       4.153047852787004
_cell_length_c       11.986185073852539
_cell_angle_alpha    90.07059250986221
_cell_angle_beta     89.8833155584799
_cell_angle_gamma    89.95627562950664

_space_group_name_H-M_alt    "P 1"
_space_group_IT_number       1

loop_
  _space_group_symop_operation_xyz
  'x, y, z'

loop_
  _atom_site_type_symbol
  _atom_site_label
  _atom_site_symmetry_multiplicity
  _atom_site_fract_x
  _atom_site_fract_y
  _atom_site_fract_z
  _atom_site_occupancy
  Fe  Fe1       1.0  0.9163009524345398  0.7829203605651855  0.8869722485542297  1.0000
  Fe  Fe2       1.0  0.4152080714702606  0.2840815484523773  0.5332833528518677  1.0000
  Fe  Fe3       1.0  0.9152405858039856  0.7840734720230103  0.42593997716903687  1.0000
  O   O1        1.0  0.9133747816085815  0.2847781181335449  0.15790605545043945  1.0000
  Mg  Mg1       1.0  0.4126625955104828  0.2849709391593933  0.2827887535095215  1.0000
  Fe  Fe4       1.0  0.912898600101471  0.784952700138092  0.15358054637908936  1.0000
  Fe  Fe5       1.0  0.41487523913383484  0.2836246192455292  0.021869633346796036  1.0000
  Fe  Fe6       1.0  0.4142550528049469  0.2831098139286041  0.7405223846435547  1.0000
  Fe  Fe7       1.0  0.915266215801239  0.7828595638275146  0.6343389749526978  1.0000
  O   O2        1.0  0.4172859787940979  0.78328937292099  0.7598406672477722  1.0000
  O   O3        1.0  0.413716197013855  0.783814549446106  0.01916431449353695  1.0000
  O   O4        1.0  0.41306090354919434  0.7848390936851501  0.2857045531272888  1.0000
  O   O5        1.0  0.9132827520370483  0.2832988500595093  0.8846047520637512  1.0000
  O   O6        1.0  0.9098478555679321  0.2851139008998871  0.401445597410202  1.0000
