data_image0
_chemical_formula_structural       FeBFeCrBCrFe3BFeB
_chemical_formula_sum              "Fe6 B4 Cr2"
_cell_length_a       2.855597115148713
_cell_length_b       6.675418112937367
_cell_length_c       6.782540321350098
_cell_angle_alpha    116.57545476927213
_cell_angle_beta     89.98514684212196
_cell_angle_gamma    102.44675949231387

_space_group_name_H-M_alt    "P 1"
_space_group_IT_number       1

loop_
  _space_group_symop_operation_xyz
  'x, y, z'

loop_
  _atom_site_type_symbol
  _atom_site_label
  _atom_site_symmetry_multiplicity
  _atom_site_fract_x
  _atom_site_fract_y
  _atom_site_fract_z
  _atom_site_occupancy
  Fe  Fe1       1.0  0.22387152910232544  0.2573607265949249  0.3180820643901825  1.0000
  B   B1        1.0  0.28175696730613703  0.37275499105453486  0.866601288318634  1.0000
  Fe  Fe2       1.0  0.9086974263191223  0.62654048204422  0.42837297916412354  1.0000
  Cr  Cr1       1.0  0.6784809827804565  0.16723109781742096  0.9647572636604309  1.0000
  B   B2        1.0  0.3321608304977417  0.47648483514785767  0.16762849688529968  1.0000
  Cr  Cr2       1.0  0.5544156432151794  0.9201169013977051  0.2739411294460296  1.0000
  Fe  Fe3       1.0  0.4431907832622527  0.6967319846153258  0.7888950705528259  1.0000
  Fe  Fe4       1.0  0.12436483800411224  0.05888112634420395  0.5859354138374329  1.0000
  Fe  Fe5       1.0  0.8960447907447815  0.6013064980506897  0.03945844247937199  1.0000
  B   B3        1.0  0.04089406877756119  0.8912847638130188  0.7574993968009949  1.0000
  Fe  Fe6       1.0  0.7757236957550049  0.36095649003982544  0.6295743584632874  1.0000
  B   B4        1.0  0.059256680309772415  0.9278404116630553  0.02830434031784528  1.0000
