data_image0
_chemical_formula_structural       OKO2KP2O3
_chemical_formula_sum              "O6 K2 P2"
_cell_length_a       4.61851490656067
_cell_length_b       5.750687128443694
_cell_length_c       7.021352767944336
_cell_angle_alpha    66.31938684948014
_cell_angle_beta     89.8238519274315
_cell_angle_gamma    89.81935082779177

_space_group_name_H-M_alt    "P 1"
_space_group_IT_number       1

loop_
  _space_group_symop_operation_xyz
  'x, y, z'

loop_
  _atom_site_type_symbol
  _atom_site_label
  _atom_site_symmetry_multiplicity
  _atom_site_fract_x
  _atom_site_fract_y
  _atom_site_fract_z
  _atom_site_occupancy
  O   O1        1.0  0.769066572189331  0.2440795451402664  0.016965888440608996  1.0000
  K   K1        1.0  0.9371709227561951  0.7738887071609497  0.7919200658798218  1.0000
  O   O2        1.0  0.38343697786331177  0.4530089795589447  0.75996333360672  1.0000
  O   O3        1.0  0.9318554997444153  0.7914829850196838  0.25450357794761663  1.0000
  K   K2        1.0  0.4355512261390686  0.49367964267730713  0.3599492311477661  1.0000
  P   P1        1.0  0.948851466178894  0.06361423432826996  0.2248469591140747  1.0000
  P   P2        1.0  0.4511943757534027  0.2067543268203735  0.9309751987457275  1.0000
  O   O4        1.0  0.8823473453521729  0.140077605843544  0.39771330356597906  1.0000
  O   O5        1.0  0.4341098964214325  0.9640358686447142  0.9000506401062012  1.0000
  O   O6        1.0  0.27007925510406494  0.18232469260692596  0.1399868726730347  1.0000
