data_image0
_chemical_formula_structural       Li2Fe2OLi2O5
_chemical_formula_sum              "Li4 Fe2 O6"
_cell_length_a       5.009734715829053
_cell_length_b       5.007279161075445
_cell_length_c       5.089014053344727
_cell_angle_alpha    99.6838038492718
_cell_angle_beta     99.6870549307291
_cell_angle_gamma    119.91120157050163

_space_group_name_H-M_alt    "P 1"
_space_group_IT_number       1

loop_
  _space_group_symop_operation_xyz
  'x, y, z'

loop_
  _atom_site_type_symbol
  _atom_site_label
  _atom_site_symmetry_multiplicity
  _atom_site_fract_x
  _atom_site_fract_y
  _atom_site_fract_z
  _atom_site_occupancy
  Li  Li1       1.0  0.5799115896224976  0.46139320731163025  0.6296646595001221  1.0000
  Li  Li2       1.0  0.7430322170257568  0.2971072494983673  0.12997137010097504  1.0000
  Fe  Fe1       1.0  0.07677001506090164  0.9641453623771667  0.12976965308189395  1.0000
  Fe  Fe2       1.0  0.40936478972435  0.6308982372283936  0.12952762842178345  1.0000
  O   O1        1.0  0.30736950039863586  0.2201317548751831  0.9036226868629456  1.0000
  Li  Li3       1.0  0.24375398457050323  0.7982403039932251  0.6301797032356262  1.0000
  Li  Li4       1.0  0.9066855907440186  0.13373494148254395  0.6296530365943909  1.0000
  O   O2        1.0  0.6672125458717347  0.8624733090400697  0.9033873677253723  1.0000
  O   O3        1.0  0.17824742197990417  0.3736455738544464  0.3555220663547516  1.0000
  O   O4        1.0  0.8200945258140564  0.7328680157661438  0.3558254837989807  1.0000
  O   O5        1.0  0.45972105860710144  0.015220979228615763  0.36061716079711914  1.0000
  O   O6        1.0  0.02603016048669815  0.5805335640907288  0.8992639780044558  1.0000
