data_image0
_chemical_formula_structural       Fe2NiCo
_chemical_formula_sum              "Fe2 Ni1 Co1"
_cell_length_a       3.5020794870841225
_cell_length_b       3.6011839012305336
_cell_length_c       3.601688861846924
_cell_angle_alpha    89.96363857822847
_cell_angle_beta     89.99933314595512
_cell_angle_gamma    90.01220805315472

_space_group_name_H-M_alt    "P 1"
_space_group_IT_number       1

loop_
  _space_group_symop_operation_xyz
  'x, y, z'

loop_
  _atom_site_type_symbol
  _atom_site_label
  _atom_site_symmetry_multiplicity
  _atom_site_fract_x
  _atom_site_fract_y
  _atom_site_fract_z
  _atom_site_occupancy
  Fe  Fe1       1.0  0.30491900444030756  0.15525704622268677  0.6909914016723633  1.0000
  Fe  Fe2       1.0  0.3047934174537658  0.6553463339805603  0.1909615695476532  1.0000
  Ni  Ni1       1.0  0.8050649166107177  0.6549425721168518  0.6908813118934631  1.0000
  Co  Co1       1.0  0.8049722909927367  0.1553753912448883  0.1909395307302475  1.0000
