data_image0
_chemical_formula_structural       FeNiFe2Ni5Fe2Ni
_chemical_formula_sum              "Fe5 Ni7"
_cell_length_a       3.5405033881506327
_cell_length_b       3.5402409994726276
_cell_length_c       11.004114151000977
_cell_angle_alpha    99.23863931451478
_cell_angle_beta     99.22885931927749
_cell_angle_gamma    90.02567693614165

_space_group_name_H-M_alt    "P 1"
_space_group_IT_number       1

loop_
  _space_group_symop_operation_xyz
  'x, y, z'

loop_
  _atom_site_type_symbol
  _atom_site_label
  _atom_site_symmetry_multiplicity
  _atom_site_fract_x
  _atom_site_fract_y
  _atom_site_fract_z
  _atom_site_occupancy
  Fe  Fe1       1.0  0.8721663355827332  0.48856133222579956  0.3918276131153106  1.0000
  Ni  Ni1       1.0  0.2865980267524719  0.40336555242538447  0.22081284224987027  1.0000
  Fe  Fe2       1.0  0.5372083187103271  0.15343041718006134  0.721982479095459  1.0000
  Fe  Fe3       1.0  0.37148967385292053  0.9880117774009703  0.3899741172790527  1.0000
  Ni  Ni2       1.0  0.4555124044418335  0.5715339183807373  0.5582342147827148  1.0000
  Ni  Ni3       1.0  0.7041622400283813  0.3203645348548889  0.05570306628942489  1.0000
  Ni  Ni4       1.0  0.20433756709098816  0.8205896615982056  0.055870633572340005  1.0000
  Ni  Ni5       1.0  0.03847661241889  0.6544652581214904  0.7239719033241272  1.0000
  Ni  Ni6       1.0  0.12133558839559555  0.23783671855926514  0.8904181122779845  1.0000
  Fe  Fe4       1.0  0.6214998960494995  0.7380475401878357  0.890790820121765  1.0000
  Fe  Fe5       1.0  0.7863717675209045  0.9027750492095947  0.2199500650167465  1.0000
  Ni  Ni7       1.0  0.9552005529403687  0.07155662029981613  0.5578389167785645  1.0000
