data_image0
_chemical_formula_structural       MnHMn2H2Mn4HAuMn2H2AuHAuH
_chemical_formula_sum              "Mn9 H8 Au3"
_cell_length_a       4.812304699269402
_cell_length_b       5.601173513896596
_cell_length_c       6.92426872253418
_cell_angle_alpha    101.34196947975312
_cell_angle_beta     97.81856768951734
_cell_angle_gamma    90.08067370054928

_space_group_name_H-M_alt    "P 1"
_space_group_IT_number       1

loop_
  _space_group_symop_operation_xyz
  'x, y, z'

loop_
  _atom_site_type_symbol
  _atom_site_label
  _atom_site_symmetry_multiplicity
  _atom_site_fract_x
  _atom_site_fract_y
  _atom_site_fract_z
  _atom_site_occupancy
  Mn  Mn1       1.0  0.952962338924408  0.36326590180397034  0.24358484148979187  1.0000
  H   H1        1.0  0.6273008584976196  0.03384784609079361  0.7960875034332275  1.0000
  Mn  Mn2       1.0  0.9277963042259216  0.8866379261016845  0.23541164398193354  1.0000
  Mn  Mn3       1.0  0.051018957048654556  0.5596482753753662  0.930458128452301  1.0000
  H   H2        1.0  0.719989538192749  0.6179479956626892  0.04520857706665989  1.0000
  H   H3        1.0  0.09844296425580978  0.6222419738769531  0.19697414338588715  1.0000
  Mn  Mn4       1.0  0.040812499821186066  0.05640236660838127  0.923222005367279  1.0000
  Mn  Mn5       1.0  0.5378912091255188  0.81857430934906  0.9287698864936829  1.0000
  Mn  Mn6       1.0  0.44565045833587646  0.6534090042114258  0.2430810034275055  1.0000
  Mn  Mn7       1.0  0.43818432092666626  0.12170635163784027  0.2357962727546692  1.0000
  H   H4        1.0  0.24544641375541687  0.8553087711334229  0.06598095595836635  1.0000
  Au  Au1       1.0  0.33742111921310425  0.48687762022018427  0.5966933369636536  1.0000
  Mn  Mn8       1.0  0.3310014307498932  0.9773963689804077  0.5818119645118713  1.0000
  Mn  Mn9       1.0  0.5458402633666992  0.3150496482849121  0.9356611371040344  1.0000
  H   H5        1.0  0.21914935111999512  0.31579625606536865  0.055756956338882446  1.0000
  H   H6        1.0  0.5983107089996338  0.3804943561553955  0.19922585785388947  1.0000
  Au  Au2       1.0  0.8294689059257507  0.22449441254138944  0.5868232846260071  1.0000
  H   H7        1.0  0.7539576888084412  0.0792747288942337  0.09188993275165558  1.0000
  Au  Au3       1.0  0.8374492526054382  0.7273367643356323  0.5792244672775269  1.0000
  H   H8        1.0  0.1525072455406189  0.12385419756174088  0.3536546230316162  1.0000
