data_image0
_chemical_formula_structural       Fe4MgO2FeO6
_chemical_formula_sum              "Fe5 Mg1 O8"
_cell_length_a       5.996891692156156
_cell_length_b       6.009881016124622
_cell_length_c       6.001201629638672
_cell_angle_alpha    60.11386156146104
_cell_angle_beta     60.04930176066556
_cell_angle_gamma    60.09533791379997

_space_group_name_H-M_alt    "P 1"
_space_group_IT_number       1

loop_
  _space_group_symop_operation_xyz
  'x, y, z'

loop_
  _atom_site_type_symbol
  _atom_site_label
  _atom_site_symmetry_multiplicity
  _atom_site_fract_x
  _atom_site_fract_y
  _atom_site_fract_z
  _atom_site_occupancy
  Fe  Fe1       1.0  0.45491209626197815  0.702197790145874  0.6860608458518982  1.0000
  Fe  Fe2       1.0  0.5774461030960083  0.33538186550140375  0.30691277980804443  1.0000
  Fe  Fe3       1.0  0.955106794834137  0.7025526165962219  0.6857330799102783  1.0000
  Fe  Fe4       1.0  0.9551342129707336  0.7023188471794128  0.18542116880416887  1.0000
  Mg  Mg1       1.0  0.9553926587104797  0.2023041695356369  0.6858323812484741  1.0000
  O   O1        1.0  0.19973526895046234  0.46789163351058954  0.9307268261909486  1.0000
  O   O2        1.0  0.1845459043979645  0.46438673138618464  0.4401169121265412  1.0000
  Fe  Fe5       1.0  0.33214756846427923  0.06975460052490233  0.06461187452077866  1.0000
  O   O3        1.0  0.7260314822196962  0.9396423697471619  0.9318601489067079  1.0000
  O   O4        1.0  0.7105479836463929  0.936423659324646  0.4409529268741608  1.0000
  O   O5        1.0  0.20096898078918463  0.9397693872451781  0.931875765323639  1.0000
  O   O6        1.0  0.7093995809555054  0.4646645486354828  0.44005912542343145  1.0000
  O   O7        1.0  0.20105651021003723  0.9395301342010497  0.4571843743324281  1.0000
  O   O8        1.0  0.7097412943840027  0.4646643698215484  0.9147766828536988  1.0000
