data_image0
_chemical_formula_structural       Fe4Rh3FeRh4
_chemical_formula_sum              "Fe5 Rh7"
_cell_length_a       3.7796162224916237
_cell_length_b       5.366604475575259
_cell_length_c       8.030688285827637
_cell_angle_alpha    89.40428708408804
_cell_angle_beta     89.95711574293085
_cell_angle_gamma    90.0148923181347

_space_group_name_H-M_alt    "P 1"
_space_group_IT_number       1

loop_
  _space_group_symop_operation_xyz
  'x, y, z'

loop_
  _atom_site_type_symbol
  _atom_site_label
  _atom_site_symmetry_multiplicity
  _atom_site_fract_x
  _atom_site_fract_y
  _atom_site_fract_z
  _atom_site_occupancy
  Fe  Fe1       1.0  0.7651713490486145  0.7054678797721863  0.6502594947814941  1.0000
  Fe  Fe2       1.0  0.2649895250797272  0.43720442056655884  0.14013901352882385  1.0000
  Fe  Fe3       1.0  0.265014111995697  0.9354234933853148  0.149447500705719  1.0000
  Fe  Fe4       1.0  0.2651265263557434  0.4331211149692535  0.4716891646385193  1.0000
  Rh  Rh1       1.0  0.2652130722999573  0.932698667049408  0.48077255487442017  1.0000
  Rh  Rh2       1.0  0.2652025818824768  0.45748969912529  0.809224009513855  1.0000
  Rh  Rh3       1.0  0.7648036479949951  0.1814357340335846  0.29888275265693665  1.0000
  Fe  Fe5       1.0  0.7651807069778442  0.20321796834468842  0.9703313708305359  1.0000
  Rh  Rh4       1.0  0.7649868726730347  0.7014015913009644  0.9850619435310364  1.0000
  Rh  Rh5       1.0  0.765069305896759  0.6772911548614502  0.3157930374145508  1.0000
  Rh  Rh6       1.0  0.7650733590126038  0.20770913362503052  0.6391480565071106  1.0000
  Rh  Rh7       1.0  0.2650682330131531  0.958282470703125  0.8173156976699829  1.0000
