data_image0
_chemical_formula_structural       EuInYEu
_chemical_formula_sum              "Eu2 In1 Y1"
_cell_length_a       4.942020938442168
_cell_length_b       4.936341940524884
_cell_length_c       5.2994842529296875
_cell_angle_alpha    89.98461408780365
_cell_angle_beta     90.00776159917638
_cell_angle_gamma    90.00880661878672

_space_group_name_H-M_alt    "P 1"
_space_group_IT_number       1

loop_
  _space_group_symop_operation_xyz
  'x, y, z'

loop_
  _atom_site_type_symbol
  _atom_site_label
  _atom_site_symmetry_multiplicity
  _atom_site_fract_x
  _atom_site_fract_y
  _atom_site_fract_z
  _atom_site_occupancy
  Eu  Eu1       1.0  0.9533220529556273  0.2126585692167282  0.5387580394744873  1.0000
  In  In1       1.0  0.4533774852752685  0.21264554560184482  0.03871777653694153  1.0000
  Y   Y1        1.0  0.9533389806747435  0.712620198726654  0.03869679570198059  1.0000
  Eu  Eu2       1.0  0.4534406661987304  0.7126386761665344  0.538788914680481  1.0000
