data_image0
_chemical_formula_structural       Fe3HFeZnFe2HZn
_chemical_formula_sum              "Fe6 H2 Zn2"
_cell_length_a       4.628828191521362
_cell_length_b       4.629753013622575
_cell_length_c       5.130459785461426
_cell_angle_alpha    90.10656028119791
_cell_angle_beta     90.11425107806423
_cell_angle_gamma    112.4451972066429

_space_group_name_H-M_alt    "P 1"
_space_group_IT_number       1

loop_
  _space_group_symop_operation_xyz
  'x, y, z'

loop_
  _atom_site_type_symbol
  _atom_site_label
  _atom_site_symmetry_multiplicity
  _atom_site_fract_x
  _atom_site_fract_y
  _atom_site_fract_z
  _atom_site_occupancy
  Fe  Fe1       1.0  0.48533621430397034  0.6247137784957886  0.6297061443328857  1.0000
  Fe  Fe2       1.0  0.4856489896774292  0.6249480843544006  0.13082085549831393  1.0000
  Fe  Fe3       1.0  0.0007741451263427734  0.6131547093391418  0.8800428509712219  1.0000
  H   H1        1.0  0.7733212113380432  0.8395448923110961  0.880515456199646  1.0000
  Fe  Fe4       1.0  0.9884573221206665  0.12776516377925873  0.12990891933441162  1.0000
  Zn  Zn1       1.0  0.48055902123451233  0.1329294890165329  0.8801263570785522  1.0000
  Fe  Fe5       1.0  0.4722415506839752  0.13961689174175262  0.3802989721298218  1.0000
  Fe  Fe6       1.0  0.9882863163948059  0.1277056485414505  0.630018949508667  1.0000
  H   H2        1.0  0.7015222907066345  0.9125539660453796  0.37949618697166443  1.0000
  Zn  Zn2       1.0  0.9930343627929688  0.6192592978477478  0.38008949160575867  1.0000
