data_image0
_chemical_formula_structural       FeVNaFeVTiO6NaO5
_chemical_formula_sum              "Fe2 V2 Na2 Ti1 O11"
_cell_length_a       5.37727879771881
_cell_length_b       6.365018742104192
_cell_length_c       7.967696666717529
_cell_angle_alpha    78.33845216045869
_cell_angle_beta     86.11686908179882
_cell_angle_gamma    80.213987293596

_space_group_name_H-M_alt    "P 1"
_space_group_IT_number       1

loop_
  _space_group_symop_operation_xyz
  'x, y, z'

loop_
  _atom_site_type_symbol
  _atom_site_label
  _atom_site_symmetry_multiplicity
  _atom_site_fract_x
  _atom_site_fract_y
  _atom_site_fract_z
  _atom_site_occupancy
  Fe  Fe1       1.0  0.40377137064933777  0.3259393572807312  0.06174345687031746  1.0000
  V   V1        1.0  0.6041262149810791  0.8373992443084718  0.05424904078245163  1.0000
  Na  Na1       1.0  0.011246971786022185  0.12028285861015321  0.771113395690918  1.0000
  Fe  Fe2       1.0  0.9634491801261902  0.06391123682260513  0.20405712723731995  1.0000
  V   V2        1.0  0.2493811994791031  0.5689676403999329  0.6213231086730957  1.0000
  Ti  Ti1       1.0  0.8113939166069031  0.45258927345275884  0.34056487679481506  1.0000
  O   O1        1.0  0.5644556879997253  0.5478177666664124  0.1374848484992981  1.0000
  O   O2        1.0  0.725589394569397  0.13903793692588806  0.020716164261102676  1.0000
  O   O3        1.0  0.15272743999958038  0.8396716117858887  0.6200584769248962  1.0000
  O   O4        1.0  0.8342756628990173  0.7818312644958496  0.23642566800117493  1.0000
  O   O5        1.0  0.29091304540634155  0.4132523834705353  0.8293259739875793  1.0000
  O   O6        1.0  0.020632654428482066  0.4584501087665558  0.5316834449768066  1.0000
  Na  Na2       1.0  0.6869584321975708  0.8527758717536926  0.555704653263092  1.0000
  O   O7        1.0  0.09405399858951569  0.34258407354354864  0.19700495898723602  1.0000
  O   O8        1.0  0.7544787526130676  0.17067977786064148  0.38970082998275757  1.0000
  O   O9        1.0  0.5281054973602295  0.5545324087142944  0.49618181586265564  1.0000
  O   O10       1.0  0.2946046590805053  0.9885271191596985  0.08245748281478882  1.0000
  O   O11       1.0  0.6791753768920898  0.8317238092422485  0.8471562266349792  1.0000
