data_image0
_chemical_formula_structural       MgSiMnO3MnO3
_chemical_formula_sum              "Mg1 Si1 Mn2 O6"
_cell_length_a       5.0217817801972755
_cell_length_b       5.4246944014022125
_cell_length_c       5.203994274139404
_cell_angle_alpha    79.7481274346726
_cell_angle_beta     79.90776255028116
_cell_angle_gamma    65.98706382464933

_space_group_name_H-M_alt    "P 1"
_space_group_IT_number       1

loop_
  _space_group_symop_operation_xyz
  'x, y, z'

loop_
  _atom_site_type_symbol
  _atom_site_label
  _atom_site_symmetry_multiplicity
  _atom_site_fract_x
  _atom_site_fract_y
  _atom_site_fract_z
  _atom_site_occupancy
  Mg  Mg1       1.0  0.1236405298113823  0.02111257240176201  0.4466585516929626  1.0000
  Si  Si1       1.0  0.11944829672574997  0.5806702971458435  0.12640395760536194  1.0000
  Mn  Mn1       1.0  0.746586799621582  0.6269755959510803  0.7051916718482971  1.0000
  O   O1        1.0  0.7708701491355897  0.30916911363601685  0.5836766362190247  1.0000
  O   O2        1.0  0.1662937700748444  0.2604341506958008  0.11238897591829299  1.0000
  O   O3        1.0  0.8702839612960815  0.7950584888458252  0.9417678117752074  1.0000
  Mn  Mn2       1.0  0.5072463154792786  0.20476773381233215  0.830375850200653  1.0000
  O   O4        1.0  0.4453182518482209  0.9930628538131714  0.6198983192443848  1.0000
  O   O5        1.0  0.4567485451698303  0.5389175415039062  0.982474386692047  1.0000
  O   O6        1.0  0.06136048585176468  0.6810996532440186  0.41091647744178766  1.0000
