data_image0
_chemical_formula_structural       Fe2OFe4O7
_chemical_formula_sum              "Fe6 O8"
_cell_length_a       5.926290160772497
_cell_length_b       5.929744080739942
_cell_length_c       6.141617298126221
_cell_angle_alpha    120.18657703485347
_cell_angle_beta     120.11697816494053
_cell_angle_gamma    87.70733463093674

_space_group_name_H-M_alt    "P 1"
_space_group_IT_number       1

loop_
  _space_group_symop_operation_xyz
  'x, y, z'

loop_
  _atom_site_type_symbol
  _atom_site_label
  _atom_site_symmetry_multiplicity
  _atom_site_fract_x
  _atom_site_fract_y
  _atom_site_fract_z
  _atom_site_occupancy
  Fe  Fe1       1.0  0.1445436179637909  0.5846723914146423  0.09056404232978821  1.0000
  Fe  Fe2       1.0  0.14514517784118652  0.5843132138252258  0.5905953645706177  1.0000
  O   O1        1.0  0.8977432847023011  0.33025655150413513  0.5902332663536072  1.0000
  Fe  Fe3       1.0  0.14493298530578613  0.08429667353630066  0.5905446410179138  1.0000
  Fe  Fe4       1.0  0.6450372934341431  0.08348725736141205  0.5899593830108643  1.0000
  Fe  Fe5       1.0  0.6449014544487  0.08425392955541611  0.09065636992454529  1.0000
  Fe  Fe6       1.0  0.644583523273468  0.5848192572593688  0.09040404856204987  1.0000
  O   O2        1.0  0.39612647891044617  0.33726981282234186  0.0627438873052597  1.0000
  O   O3        1.0  0.889722764492035  0.33840984106063837  0.09073840081691742  1.0000
  O   O4        1.0  0.8937695622444154  0.8315723538398742  0.11772862076759337  1.0000
  O   O5        1.0  0.8961669802665712  0.8351963758468628  0.5622247457504272  1.0000
  O   O6        1.0  0.3919282853603363  0.8378826975822448  0.590494692325592  1.0000
  O   O7        1.0  0.3941083252429962  0.3334189057350158  0.6193796992301941  1.0000
  O   O8        1.0  0.40027251839637756  0.8310927748680115  0.09084699302911758  1.0000
