data_image0
_chemical_formula_structural       CoFeCoFe2CoFeBFeCoBCo
_chemical_formula_sum              "Co5 Fe5 B2"
_cell_length_a       2.7946919236538066
_cell_length_b       6.424779954881861
_cell_length_c       7.000489711761475
_cell_angle_alpha    90.50053242920698
_cell_angle_beta     101.63114531287984
_cell_angle_gamma    89.99314499329995

_space_group_name_H-M_alt    "P 1"
_space_group_IT_number       1

loop_
  _space_group_symop_operation_xyz
  'x, y, z'

loop_
  _atom_site_type_symbol
  _atom_site_label
  _atom_site_symmetry_multiplicity
  _atom_site_fract_x
  _atom_site_fract_y
  _atom_site_fract_z
  _atom_site_occupancy
  Co  Co1       1.0  0.5672132968902588  0.8684084415435792  0.8330977559089661  1.0000
  Fe  Fe1       1.0  0.9417349100112915  0.61756432056427  0.5816105604171753  1.0000
  Co  Co2       1.0  0.38258734345436096  0.315032035112381  0.46209606528282166  1.0000
  Fe  Fe2       1.0  0.14024488627910614  0.6152766942977905  0.9769719243049623  1.0000
  Fe  Fe3       1.0  0.9899135828018188  0.11427930742502213  0.6785018444061279  1.0000
  Co  Co3       1.0  0.5656030178070068  0.36445343494415283  0.8295884132385254  1.0000
  Fe  Fe4       1.0  0.1894386112689972  0.11754574626684189  0.0784209594130516  1.0000
  B   B1        1.0  0.3166312277317047  0.6147603392601013  0.33081090450286865  1.0000
  Fe  Fe5       1.0  0.38042449951171875  0.919806182384491  0.45950746536254883  1.0000
  Co  Co4       1.0  0.7487120628356934  0.42040213942527777  0.19648759067058563  1.0000
  B   B2        1.0  0.8128531575202942  0.11979658156633377  0.32569852471351624  1.0000
  Co  Co5       1.0  0.7494692206382751  0.815075695514679  0.19727391004562378  1.0000
