data_image0
_chemical_formula_structural       Os2O4PbO4OsOPb2O3
_chemical_formula_sum              "Os3 O12 Pb3"
_cell_length_a       7.041713614267771
_cell_length_b       7.036290440610624
_cell_length_c       7.045080184936523
_cell_angle_alpha    62.94002819231313
_cell_angle_beta     62.91240690479049
_cell_angle_gamma    62.89799362828468

_space_group_name_H-M_alt    "P 1"
_space_group_IT_number       1

loop_
  _space_group_symop_operation_xyz
  'x, y, z'

loop_
  _atom_site_type_symbol
  _atom_site_label
  _atom_site_symmetry_multiplicity
  _atom_site_fract_x
  _atom_site_fract_y
  _atom_site_fract_z
  _atom_site_occupancy
  Os  Os1       1.0  0.15799637138843536  0.140178382396698  0.24194499850273132  1.0000
  Os  Os2       1.0  0.6584197282791138  0.6398023962974548  0.2417391538619995  1.0000
  O   O1        1.0  0.9337968826293945  0.03265392407774925  0.517636239528656  1.0000
  O   O2        1.0  0.5503333806991577  0.41575449705123907  0.5180771350860596  1.0000
  O   O3        1.0  0.10449324548244476  0.0015037059783935547  0.10348812490701675  1.0000
  O   O4        1.0  0.5195519924163818  0.5863356590270996  0.10339120030403132  1.0000
  Pb  Pb1       1.0  0.2911714017391205  0.7719263434410095  0.8744684457778931  1.0000
  O   O5        1.0  0.7663907408714294  0.8645647764205933  0.9658271074295044  1.0000
  O   O6        1.0  0.7972851395606995  0.27863967418670654  0.7960057854652405  1.0000
  O   O7        1.0  0.9337713122367859  0.41571611166000366  0.13421975076198578  1.0000
  O   O8        1.0  0.7964305281639099  0.6939051151275635  0.3803449869155884  1.0000
  Os  Os3       1.0  0.6583923697471619  0.14010541141033173  0.7418515086174011  1.0000
  O   O9        1.0  0.3827836513519287  0.24771562218666077  0.9661986231803894  1.0000
  Pb  Pb2       1.0  0.024986933916807192  0.5078444480895996  0.6099144220352173  1.0000
  Pb  Pb3       1.0  0.6581480503082275  0.1397758275270462  0.2423713207244873  1.0000
  O   O10       1.0  0.5198074579238892  0.0013107061386108398  0.6881586313247681  1.0000
  O   O11       1.0  0.38248488306999207  0.8643251061439513  0.34939560294151306  1.0000
  O   O12       1.0  0.21207726001739502  0.27850762009620667  0.38061267137527466  1.0000
