data_image0
_chemical_formula_structural       FeOMnBaFeOFeO3
_chemical_formula_sum              "Fe3 O5 Mn1 Ba1"
_cell_length_a       3.353739232528409
_cell_length_b       3.351891725563559
_cell_length_c       12.101129531860352
_cell_angle_alpha    97.97510254646778
_cell_angle_beta     97.9644403846674
_cell_angle_gamma    90.01554119382168

_space_group_name_H-M_alt    "P 1"
_space_group_IT_number       1

loop_
  _space_group_symop_operation_xyz
  'x, y, z'

loop_
  _atom_site_type_symbol
  _atom_site_label
  _atom_site_symmetry_multiplicity
  _atom_site_fract_x
  _atom_site_fract_y
  _atom_site_fract_z
  _atom_site_occupancy
  Fe  Fe1       1.0  0.4332958459854126  0.9571053981781005  0.5954599380493164  1.0000
  O   O1        1.0  0.5220288634300232  0.04703797399997711  0.7719571590423585  1.0000
  Mn  Mn1       1.0  0.2570279538631439  0.7803299427032471  0.2431915253400803  1.0000
  Ba  Ba1       1.0  0.6402243375778198  0.16286839544773102  0.007064357399940492  1.0000
  Fe  Fe2       1.0  0.8456106781959534  0.36957970261573786  0.4217540323734284  1.0000
  O   O2        1.0  0.34726855158805847  0.869865596294403  0.4236093163490296  1.0000
  Fe  Fe3       1.0  0.017730917781591415  0.5411438345909119  0.764751970767975  1.0000
  O   O3        1.0  0.7626687288284302  0.28398755192756653  0.25498369336128235  1.0000
  O   O4        1.0  0.17069248855113983  0.6932643055915833  0.06886781007051468  1.0000
  O   O5        1.0  0.9325669407844543  0.4577015340328216  0.5940109491348267  1.0000
