data_image0
_chemical_formula_structural       K2OPMnOMnOPO3
_chemical_formula_sum              "K2 O6 P2 Mn2"
_cell_length_a       5.521510240964099
_cell_length_b       5.523590069660632
_cell_length_c       6.214757919311523
_cell_angle_alpha    90.07882288229987
_cell_angle_beta     89.92015076416557
_cell_angle_gamma    120.07708834374026

_space_group_name_H-M_alt    "P 1"
_space_group_IT_number       1

loop_
  _space_group_symop_operation_xyz
  'x, y, z'

loop_
  _atom_site_type_symbol
  _atom_site_label
  _atom_site_symmetry_multiplicity
  _atom_site_fract_x
  _atom_site_fract_y
  _atom_site_fract_z
  _atom_site_occupancy
  K   K1        1.0  0.6233588457107544  0.046847444027662284  0.17707614600658417  1.0000
  K   K2        1.0  0.9560859799385071  0.7139212489128113  0.5167694091796875  1.0000
  O   O1        1.0  0.46564632654190063  0.2039594054222107  0.591464638710022  1.0000
  P   P1        1.0  0.9568468332290649  0.7140532732009888  0.01501149032264948  1.0000
  Mn  Mn1       1.0  0.28982868790626526  0.38086989521980286  0.3469794988632202  1.0000
  O   O2        1.0  0.11277040094137192  0.027595756575465202  0.10273876041173935  1.0000
  Mn  Mn2       1.0  0.2893177568912506  0.3798275589942932  0.8469605445861816  1.0000
  O   O3        1.0  0.936678946018219  0.20401951670646667  0.5916095972061157  1.0000
  P   P2        1.0  0.6229602098464966  0.04750118777155876  0.6799278259277344  1.0000
  O   O4        1.0  0.642439603805542  0.5573044419288635  0.10234587639570236  1.0000
  O   O5        1.0  0.11275126039981842  0.5563151240348816  0.10318431258201599  1.0000
  O   O6        1.0  0.46591126918792725  0.7328154444694519  0.5917559266090393  1.0000
