data_image0
_chemical_formula_structural       Mn4FMnFOMnFO4F2O2
_chemical_formula_sum              "Mn6 F5 O7"
_cell_length_a       4.742182011089976
_cell_length_b       5.663425054530168
_cell_length_c       7.713808059692383
_cell_angle_alpha    85.08820871087372
_cell_angle_beta     87.11353723502907
_cell_angle_gamma    85.47914110290175

_space_group_name_H-M_alt    "P 1"
_space_group_IT_number       1

loop_
  _space_group_symop_operation_xyz
  'x, y, z'

loop_
  _atom_site_type_symbol
  _atom_site_label
  _atom_site_symmetry_multiplicity
  _atom_site_fract_x
  _atom_site_fract_y
  _atom_site_fract_z
  _atom_site_occupancy
  Mn  Mn1       1.0  0.4015464186668396  0.13917043805122373  0.578294038772583  1.0000
  Mn  Mn2       1.0  0.8846154808998108  0.6403927803039551  0.5885472297668457  1.0000
  Mn  Mn3       1.0  0.9136949181556702  0.9773353934288024  0.267940491437912  1.0000
  Mn  Mn4       1.0  0.8515226244926453  0.31380647420883173  0.91274493932724  1.0000
  F   F1        1.0  0.08548613637685777  0.6136211752891539  0.8154366612434387  1.0000
  Mn  Mn5       1.0  0.38308289647102356  0.47516056895256037  0.256591260433197  1.0000
  F   F2        1.0  0.7059587836265564  0.0028412793762981887  0.03748378902673721  1.0000
  O   O1        1.0  0.6957517862319946  0.3597461581230163  0.6897578239440918  1.0000
  Mn  Mn6       1.0  0.39471957087516785  0.7987118363380431  0.9259281754493713  1.0000
  F   F3        1.0  0.6880443096160889  0.669315218925476  0.36089348793029785  1.0000
  O   O2        1.0  0.18455402553081512  0.4267769753932953  0.48443448543548584  1.0000
  O   O3        1.0  0.5864561200141907  0.852400243282318  0.6950250864028931  1.0000
  O   O4        1.0  0.5758374333381653  0.5074585676193236  0.02656740695238114  1.0000
  O   O5        1.0  0.5842490196228027  0.1714729368686676  0.35075727105140686  1.0000
  F   F4        1.0  0.06957936286926271  0.27857363224029535  0.13040441274642944  1.0000
  F   F5        1.0  0.18829680979251862  0.10950253903865813  0.822310209274292  1.0000
  O   O6        1.0  0.07465793192386627  0.921657919883728  0.491471141576767  1.0000
  O   O7        1.0  0.19432178139686587  0.7702472805976867  0.15563587844371796  1.0000
