data_image0
_chemical_formula_structural       OGd3SGdO3As
_chemical_formula_sum              "O4 Gd4 S1 As1"
_cell_length_a       3.8888397374792105
_cell_length_b       3.8867907524474137
_cell_length_c       13.689924240112305
_cell_angle_alpha    90.0002483912681
_cell_angle_beta     89.96486801267577
_cell_angle_gamma    119.92692183767178

_space_group_name_H-M_alt    "P 1"
_space_group_IT_number       1

loop_
  _space_group_symop_operation_xyz
  'x, y, z'

loop_
  _atom_site_type_symbol
  _atom_site_label
  _atom_site_symmetry_multiplicity
  _atom_site_fract_x
  _atom_site_fract_y
  _atom_site_fract_z
  _atom_site_occupancy
  O   O1        1.0  0.4690963923931122  0.2851674556732178  0.38713642954826355  1.0000
  Gd  Gd1       1.0  0.13676196336746216  0.6185420155525208  0.3393784165382385  1.0000
  Gd  Gd2       1.0  0.47066235542297363  0.28557494282722473  0.04613816738128662  1.0000
  Gd  Gd3       1.0  0.13694681227207184  0.618837296962738  0.8326177000999451  1.0000
  S   S1        1.0  0.8034589886665344  0.9524732232093811  0.692666232585907  1.0000
  Gd  Gd4       1.0  0.469770610332489  0.28527817130088806  0.5530693531036377  1.0000
  O   O2        1.0  0.13780169188976288  0.6185798048973083  0.9987797737121582  1.0000
  O   O3        1.0  0.13674969971179962  0.6187344789505005  0.51230388879776  1.0000
  O   O4        1.0  0.4702611565589905  0.28570103645324707  0.8732274174690247  1.0000
  As  As1       1.0  0.8028464913368225  0.9520776867866516  0.19343352317810059  1.0000
