data_image0
_chemical_formula_structural       CoFe2Co2FeCoFe
_chemical_formula_sum              "Co4 Fe4"
_cell_length_a       2.8406707189173535
_cell_length_b       4.019280274327936
_cell_length_c       8.399149894714355
_cell_angle_alpha    103.80671816949112
_cell_angle_beta     99.7091171535228
_cell_angle_gamma    90.04455571148887

_space_group_name_H-M_alt    "P 1"
_space_group_IT_number       1

loop_
  _space_group_symop_operation_xyz
  'x, y, z'

loop_
  _atom_site_type_symbol
  _atom_site_label
  _atom_site_symmetry_multiplicity
  _atom_site_fract_x
  _atom_site_fract_y
  _atom_site_fract_z
  _atom_site_occupancy
  Co  Co1       1.0  0.7552715539932251  0.08882284909486772  0.9620197415351868  1.0000
  Fe  Fe1       1.0  0.1304803192615509  0.9641327261924745  0.7118045687675476  1.0000
  Fe  Fe2       1.0  0.005368590354919438  0.3390421569347382  0.4628142714500427  1.0000
  Co  Co2       1.0  0.6301689743995667  0.46382868289947515  0.7119051814079285  1.0000
  Co  Co3       1.0  0.878563404083252  0.712535321712494  0.2089459002017975  1.0000
  Fe  Fe3       1.0  0.2551599442958832  0.5887001752853394  0.961745023727417  1.0000
  Co  Co4       1.0  0.5065711736679077  0.8402217030525209  0.4649220108985901  1.0000
  Fe  Fe4       1.0  0.38005349040031433  0.2139503359794617  0.21164950728416443  1.0000
