data_image0
_chemical_formula_structural       Fe6CoFe3CoFe4C
_chemical_formula_sum              "Fe13 Co2 C1"
_cell_length_a       4.707565218250598
_cell_length_b       6.424790024554874
_cell_length_c       6.363856315612793
_cell_angle_alpha    105.12309256260697
_cell_angle_beta     76.78948057891112
_cell_angle_gamma    96.85829104667391

_space_group_name_H-M_alt    "P 1"
_space_group_IT_number       1

loop_
  _space_group_symop_operation_xyz
  'x, y, z'

loop_
  _atom_site_type_symbol
  _atom_site_label
  _atom_site_symmetry_multiplicity
  _atom_site_fract_x
  _atom_site_fract_y
  _atom_site_fract_z
  _atom_site_occupancy
  Fe  Fe1       1.0  0.8989489078521729  0.4939039349555969  0.8414092659950256  1.0000
  Fe  Fe2       1.0  0.7185718417167664  0.5291045308113098  0.27524688839912415  1.0000
  Fe  Fe3       1.0  0.6361735463142395  0.8305909633636475  0.03521387279033663  1.0000
  Fe  Fe4       1.0  0.041175056248903275  0.8358671069145203  0.2340301126241684  1.0000
  Fe  Fe5       1.0  0.37077316641807556  0.16590176522731784  0.2324623465538025  1.0000
  Fe  Fe6       1.0  0.9652336835861206  0.1627243906259537  0.03134673088788985  1.0000
  Co  Co1       1.0  0.8357179164886475  0.823481023311615  0.6350285410881042  1.0000
  Fe  Fe7       1.0  0.773665189743042  0.1660512387752533  0.42810866236686707  1.0000
  Fe  Fe8       1.0  0.43302300572395325  0.8364140391349794  0.4380756914615631  1.0000
  Fe  Fe9       1.0  0.1104438453912735  0.49901881814002996  0.44210946559906006  1.0000
  Co  Co2       1.0  0.15953582525253296  0.1618800759315491  0.62845379114151  1.0000
  Fe  Fe10      1.0  0.22744877636432648  0.8235399127006532  0.8382073044776917  1.0000
  Fe  Fe11      1.0  0.30763745307922363  0.4994221031665802  0.042859461158514044  1.0000
  Fe  Fe12      1.0  0.4968816339969635  0.49397802352905273  0.6440026760101318  1.0000
  Fe  Fe13      1.0  0.549547016620636  0.1318177878856659  0.7977777123451233  1.0000
  C   C1        1.0  0.6365759968757629  0.3297705948352814  0.0372384861111641  1.0000
