data_image0
_chemical_formula_structural       SmGdSmGd2O5AuO3AuOGdO3
_chemical_formula_sum              "Sm2 Gd4 O12 Au2"
_cell_length_a       5.66358730928069
_cell_length_b       7.2849043233982735
_cell_length_c       7.316605091094971
_cell_angle_alpha    102.1548023233523
_cell_angle_beta     89.8486250166122
_cell_angle_gamma    89.94027932329148

_space_group_name_H-M_alt    "P 1"
_space_group_IT_number       1

loop_
  _space_group_symop_operation_xyz
  'x, y, z'

loop_
  _atom_site_type_symbol
  _atom_site_label
  _atom_site_symmetry_multiplicity
  _atom_site_fract_x
  _atom_site_fract_y
  _atom_site_fract_z
  _atom_site_occupancy
  Sm  Sm1       1.0  0.15662340819835663  0.4502398669719696  0.9939154982566832  1.0000
  Gd  Gd1       1.0  0.1057271733880043  0.3739774525165558  0.4833888709545135  1.0000
  Sm  Sm2       1.0  0.6035768389701843  0.7312644720077515  0.30171501636505127  1.0000
  Gd  Gd2       1.0  0.6072653532028198  0.14416906237602234  0.7154487967491149  1.0000
  Gd  Gd3       1.0  0.10712651163339615  0.9603701233863831  0.06488724052906036  1.0000
  O   O1        1.0  0.3804223835468292  0.4080987274646759  0.715325355529785  1.0000
  O   O2        1.0  0.8858751654624939  0.9481803178787231  0.8058862090110778  1.0000
  O   O3        1.0  0.8103800415992737  0.03356768190860748  0.41614109277725214  1.0000
  O   O4        1.0  0.8782569169998169  0.6984989047050476  0.06333594024181366  1.0000
  O   O5        1.0  0.37994229793548584  0.7268285155296326  0.032405126839876175  1.0000
  Au  Au1       1.0  0.6029762625694275  0.19411686062812805  0.24931104481220243  1.0000
  O   O6        1.0  0.8890408277511597  0.6370819211006165  0.4972960948944091  1.0000
  O   O7        1.0  0.3894808888435364  0.1566295325756073  0.9780496954917907  1.0000
  O   O8        1.0  0.9333069324493408  0.2719007730484009  0.1733896881341934  1.0000
  Au  Au2       1.0  0.10475417971611023  0.9102609753608704  0.5349243879318237  1.0000
  O   O9        1.0  0.30961498618125916  0.0722704529762268  0.36693122982978815  1.0000
  Gd  Gd4       1.0  0.6580719947814941  0.6560247540473937  0.789350390434265  1.0000
  O   O10       1.0  0.3847019672393799  0.4646467864513397  0.2883327901363373  1.0000
  O   O11       1.0  0.8768147230148315  0.37921857833862305  0.7468419075012206  1.0000
  O   O12       1.0  0.43470531702041626  0.8344514966011047  0.6147527694702148  1.0000
