data_image0
_chemical_formula_structural       Fe3HRhFe2RhHFe
_chemical_formula_sum              "Fe6 H2 Rh2"
_cell_length_a       4.550398139960073
_cell_length_b       5.35100962865301
_cell_length_c       5.310099124908447
_cell_angle_alpha    121.01592751572475
_cell_angle_beta     106.26010816340448
_cell_angle_gamma    90.24671584167814

_space_group_name_H-M_alt    "P 1"
_space_group_IT_number       1

loop_
  _space_group_symop_operation_xyz
  'x, y, z'

loop_
  _atom_site_type_symbol
  _atom_site_label
  _atom_site_symmetry_multiplicity
  _atom_site_fract_x
  _atom_site_fract_y
  _atom_site_fract_z
  _atom_site_occupancy
  Fe  Fe1       1.0  0.6511651873588562  0.08441924303770065  0.2062999606132508  1.0000
  Fe  Fe2       1.0  0.15978525578975677  0.8122414946556091  0.6873267889022827  1.0000
  Fe  Fe3       1.0  0.15797804296016693  0.3155125379562378  0.6902048587799072  1.0000
  H   H1        1.0  0.9073172807693481  0.9437373876571655  0.9463070034980774  1.0000
  Rh  Rh1       1.0  0.1465819776058197  0.8150607943534851  0.19838613271713249  1.0000
  Fe  Fe4       1.0  0.6586444973945618  0.5598011016845703  0.683643102645874  1.0000
  Fe  Fe5       1.0  0.6518528461456299  0.5641366839408875  0.20148088037967682  1.0000
  Rh  Rh2       1.0  0.6624621748924255  0.07492268830537796  0.6972692608833313  1.0000
  H   H2        1.0  0.4132174253463745  0.6938471794128419  0.9370903968811035  1.0000
  Fe  Fe6       1.0  0.15729165077209473  0.32359063625335693  0.19822917878627777  1.0000
