data_image0
_chemical_formula_structural       Fe3Co4
_chemical_formula_sum              "Fe3 Co4"
_cell_length_a       4.0119988009654
_cell_length_b       4.011193146947252
_cell_length_c       6.182075023651123
_cell_angle_alpha    71.10617539496597
_cell_angle_beta     71.12469990716328
_cell_angle_gamma    59.96509365914207

_space_group_name_H-M_alt    "P 1"
_space_group_IT_number       1

loop_
  _space_group_symop_operation_xyz
  'x, y, z'

loop_
  _atom_site_type_symbol
  _atom_site_label
  _atom_site_symmetry_multiplicity
  _atom_site_fract_x
  _atom_site_fract_y
  _atom_site_fract_z
  _atom_site_occupancy
  Fe  Fe1       1.0  0.5346028804779053  0.18591050803661346  0.34881627559661865  1.0000
  Fe  Fe2       1.0  0.10533777624368668  0.756672739982605  0.6366044282913208  1.0000
  Fe  Fe3       1.0  0.24991510808467865  0.900907576084137  0.2030479460954666  1.0000
  Co  Co1       1.0  0.3924488425254822  0.04366644844412803  0.7759411334991455  1.0000
  Co  Co2       1.0  0.9638787508010864  0.6145750880241394  0.06164420768618584  1.0000
  Co  Co3       1.0  0.8198165893554688  0.47110557556152344  0.4933665990829468  1.0000
  Co  Co4       1.0  0.6763551235198975  0.32794088125228876  0.9225999116897583  1.0000
