data_image0
_chemical_formula_structural       LiEu2Ag
_chemical_formula_sum              "Li1 Eu2 Ag1"
_cell_length_a       3.9313166497963787
_cell_length_b       3.933518671196581
_cell_length_c       7.870948314666748
_cell_angle_alpha    89.96489533314198
_cell_angle_beta     89.99228439069098
_cell_angle_gamma    90.044303109092

_space_group_name_H-M_alt    "P 1"
_space_group_IT_number       1

loop_
  _space_group_symop_operation_xyz
  'x, y, z'

loop_
  _atom_site_type_symbol
  _atom_site_label
  _atom_site_symmetry_multiplicity
  _atom_site_fract_x
  _atom_site_fract_y
  _atom_site_fract_z
  _atom_site_occupancy
  Li  Li1       1.0  0.5240557193756104  0.8588299155235292  0.7167853116989136  1.0000
  Eu  Eu1       1.0  0.023549510166049004  0.3588498234748841  0.4501344263553619  1.0000
  Eu  Eu2       1.0  0.02400328405201435  0.358952134847641  0.9832399487495421  1.0000
  Ag  Ag1       1.0  0.5238321423530579  0.8587521314620972  0.2170071005821228  1.0000
