data_image0
_chemical_formula_structural       OGdVO2VO3
_chemical_formula_sum              "O6 Gd1 V2"
_cell_length_a       4.95388171415427
_cell_length_b       5.064744552428688
_cell_length_c       5.0782952308654785
_cell_angle_alpha    119.67404102218148
_cell_angle_beta     89.86475109681128
_cell_angle_gamma    89.80326572547015

_space_group_name_H-M_alt    "P 1"
_space_group_IT_number       1

loop_
  _space_group_symop_operation_xyz
  'x, y, z'

loop_
  _atom_site_type_symbol
  _atom_site_label
  _atom_site_symmetry_multiplicity
  _atom_site_fract_x
  _atom_site_fract_y
  _atom_site_fract_z
  _atom_site_occupancy
  O   O1        1.0  0.021146943792700768  0.7903661131858826  0.44109004735946655  1.0000
  Gd  Gd1       1.0  0.30503126978874207  0.7867597937583923  0.8089454174041748  1.0000
  V   V1        1.0  0.8054302930831909  0.12089592218399049  0.4772663712501526  1.0000
  O   O2        1.0  0.5895056128501892  0.41592249274253845  0.4415782392024994  1.0000
  O   O3        1.0  0.5905224084854126  0.15422773361206055  0.8100225925445557  1.0000
  V   V2        1.0  0.8060626983642577  0.45228034257888794  0.140229269862175  1.0000
  O   O4        1.0  0.022213706746697426  0.15768875181674957  0.1750517338514328  1.0000
  O   O5        1.0  0.589341938495636  0.7833932042121887  0.17696377635002136  1.0000
  O   O6        1.0  0.021050553768873215  0.4196070432662964  0.8083409070968628  1.0000
