data_image0
_chemical_formula_structural       MnFeMnO3Fe2O5MnO
_chemical_formula_sum              "Mn3 Fe3 O9"
_cell_length_a       3.849364856585738
_cell_length_b       5.281436933004567
_cell_length_c       9.877762794494629
_cell_angle_alpha    89.02245211638369
_cell_angle_beta     90.03726801706719
_cell_angle_gamma    111.44944076690733

_space_group_name_H-M_alt    "P 1"
_space_group_IT_number       1

loop_
  _space_group_symop_operation_xyz
  'x, y, z'

loop_
  _atom_site_type_symbol
  _atom_site_label
  _atom_site_symmetry_multiplicity
  _atom_site_fract_x
  _atom_site_fract_y
  _atom_site_fract_z
  _atom_site_occupancy
  Mn  Mn1       1.0  0.2855093479156494  0.8850303292274475  0.6557547450065613  1.0000
  Fe  Fe1       1.0  0.951067328453064  0.21534287929534915  0.831597089767456  1.0000
  Mn  Mn2       1.0  0.07568385452032092  0.46438232064247137  0.23378126323223114  1.0000
  O   O1        1.0  0.2630976140499115  0.8398250937461853  0.17835476994514465  1.0000
  O   O2        1.0  0.4482089579105377  0.2074881196022034  0.5244904160499573  1.0000
  O   O3        1.0  0.8312339782714844  0.9745336771011354  0.6651661992073059  1.0000
  Fe  Fe2       1.0  0.4137042462825775  0.14025793969631195  0.05359739065170288  1.0000
  Fe  Fe3       1.0  0.0039591556414961815  0.3224247992038727  0.5378243327140808  1.0000
  O   O4        1.0  0.9773387312889099  0.26836958527565  0.029992561787366867  1.0000
  O   O5        1.0  0.1019449532032013  0.5146501064300537  0.7106555104255676  1.0000
  O   O6        1.0  0.3871099650859833  0.08657735586166382  0.8571475744247437  1.0000
  O   O7        1.0  0.9066711664199829  0.12819959223270416  0.3510487675666809  1.0000
  O   O8        1.0  0.5269861221313477  0.3675326108932495  0.22552265226840973  1.0000
  Mn  Mn3       1.0  0.35741034150123596  0.02628418803215027  0.34683841466903687  1.0000
  O   O9        1.0  0.18226824700832367  0.6774613857269287  0.4388892948627472  1.0000
