data_image0
_chemical_formula_structural       LiTlMnLiMgMnOMnO7
_chemical_formula_sum              "Li2 Tl1 Mn3 Mg1 O8"
_cell_length_a       5.985684064187367
_cell_length_b       5.974871628459406
_cell_length_c       6.345859527587891
_cell_angle_alpha    73.88927919760343
_cell_angle_beta     62.326158012243866
_cell_angle_gamma    58.79966545739655

_space_group_name_H-M_alt    "P 1"
_space_group_IT_number       1

loop_
  _space_group_symop_operation_xyz
  'x, y, z'

loop_
  _atom_site_type_symbol
  _atom_site_label
  _atom_site_symmetry_multiplicity
  _atom_site_fract_x
  _atom_site_fract_y
  _atom_site_fract_z
  _atom_site_occupancy
  Li  Li1       1.0  0.8280645012855531  0.9043355584144592  0.4210176765918731  1.0000
  Tl  Tl1       1.0  0.7343846559524536  0.40194883942604065  0.6333310008049011  1.0000
  Mn  Mn1       1.0  0.20597130060195934  0.494158923625946  0.604904055595398  1.0000
  Li  Li2       1.0  0.2997337281703949  0.9793975353240967  0.7622365355491637  1.0000
  Mg  Mg1       1.0  0.7213611006736755  0.4357690215110779  0.12569680809974676  1.0000
  Mn  Mn2       1.0  0.18427222967147824  0.5253753066062927  0.0971686542034149  1.0000
  O   O1        1.0  0.1916662007570267  0.22562748193740845  0.4845487177371978  1.0000
  Mn  Mn3       1.0  0.4322048127651214  0.9850335121154785  0.15674620866775513  1.0000
  O   O2        1.0  0.783068597316742  0.6808827519416809  0.7619979977607726  1.0000
  O   O3        1.0  0.25848230719566345  0.6914894580841064  0.7534787654876708  1.0000
  O   O4        1.0  0.15721124410629272  0.24271778762340543  0.006421820726245659  1.0000
  O   O5        1.0  0.7640077471733094  0.7139082551002502  0.2438915967941284  1.0000
  O   O6        1.0  0.2667295634746553  0.7269256114959716  0.24292400479316706  1.0000
  O   O7        1.0  0.5823178291320801  0.2539898157119751  0.02190788462758064  1.0000
  O   O8        1.0  0.6127951145172119  0.2596387565135956  0.4573684334754943  1.0000
