data_image0
_chemical_formula_structural       Co3MoCo
_chemical_formula_sum              "Co4 Mo1"
_cell_length_a       3.564762594033153
_cell_length_b       4.39261870084773
_cell_length_c       4.393918037414551
_cell_angle_alpha    80.5550942368026
_cell_angle_beta     66.00245159902374
_cell_angle_gamma    66.04161886975865

_space_group_name_H-M_alt    "P 1"
_space_group_IT_number       1

loop_
  _space_group_symop_operation_xyz
  'x, y, z'

loop_
  _atom_site_type_symbol
  _atom_site_label
  _atom_site_symmetry_multiplicity
  _atom_site_fract_x
  _atom_site_fract_y
  _atom_site_fract_z
  _atom_site_occupancy
  Co  Co1       1.0  0.36230236291885376  0.38588654994964605  0.7163165211677551  1.0000
  Co  Co2       1.0  0.5717625021934509  0.5785183310508728  0.10445588827133184  1.0000
  Co  Co3       1.0  0.16949407756328583  0.19085828959941864  0.2970236539840698  1.0000
  Mo  Mo1       1.0  0.7656819224357605  0.7884230613708496  0.5068172216415405  1.0000
  Co  Co4       1.0  0.9596665501594542  0.9981309771537781  0.9090497493743898  1.0000
