data_image0
_chemical_formula_structural       LiOVOFeVOFeVOVO4
_chemical_formula_sum              "Li1 O8 V4 Fe2"
_cell_length_a       6.10426558358126
_cell_length_b       6.121135797092127
_cell_length_c       6.126790523529053
_cell_angle_alpha    90.68041909015265
_cell_angle_beta     119.51995153851738
_cell_angle_gamma    119.81480591058232

_space_group_name_H-M_alt    "P 1"
_space_group_IT_number       1

loop_
  _space_group_symop_operation_xyz
  'x, y, z'

loop_
  _atom_site_type_symbol
  _atom_site_label
  _atom_site_symmetry_multiplicity
  _atom_site_fract_x
  _atom_site_fract_y
  _atom_site_fract_z
  _atom_site_occupancy
  Li  Li1       1.0  0.933414101600647  0.36014041304588323  0.8997913599014281  1.0000
  O   O1        1.0  0.4357086718082428  0.13393929600715637  0.13109159469604492  1.0000
  V   V1        1.0  0.4336634278297425  0.8605151176452638  0.900172233581543  1.0000
  O   O2        1.0  0.9786810278892517  0.12023142725229265  0.6694349646568298  1.0000
  Fe  Fe1       1.0  0.933556854724884  0.360205739736557  0.3987818360328673  1.0000
  V   V2        1.0  0.9340606927871704  0.8601098060607911  0.39998674392700195  1.0000
  O   O3        1.0  0.8881977200508118  0.6005510091781616  0.13062919676303858  1.0000
  Fe  Fe2       1.0  0.9326872229576111  0.8602596521377565  0.8992300033569336  1.0000
  V   V3        1.0  0.43250802159309387  0.3603876531124115  0.8996111750602722  1.0000
  O   O4        1.0  0.9343792200088501  0.6199064254760742  0.6316997408866882  1.0000
  V   V4        1.0  0.433279424905777  0.36004194617271423  0.39961129426956177  1.0000
  O   O5        1.0  0.4311054646968842  0.5862854719161988  0.6688425540924072  1.0000
  O   O6        1.0  0.4259275197982788  0.13052374124526978  0.6703672409057617  1.0000
  O   O7        1.0  0.9313898682594299  0.09978930652141571  0.16752767562866205  1.0000
  O   O8        1.0  0.4414321184158325  0.5901025533676147  0.12904585897922513  1.0000
