data_image0
_chemical_formula_structural       FeMnFeHFe2HMn2H2FeCrFeMnBFe2HCr
_chemical_formula_sum              "Fe8 Mn4 H5 Cr2 B1"
_cell_length_a       4.489227301471518
_cell_length_b       4.962997440905472
_cell_length_c       8.118281364440918
_cell_angle_alpha    90.66924495185643
_cell_angle_beta     105.9901648787936
_cell_angle_gamma    90.09743512788579

_space_group_name_H-M_alt    "P 1"
_space_group_IT_number       1

loop_
  _space_group_symop_operation_xyz
  'x, y, z'

loop_
  _atom_site_type_symbol
  _atom_site_label
  _atom_site_symmetry_multiplicity
  _atom_site_fract_x
  _atom_site_fract_y
  _atom_site_fract_z
  _atom_site_occupancy
  Fe  Fe1       1.0  0.6859050989151001  0.9818888306617737  0.2068391740322113  1.0000
  Mn  Mn1       1.0  0.3979376554489136  0.42458131909370417  0.6096792221069336  1.0000
  Fe  Fe2       1.0  0.5488482117652893  0.7005704045295715  0.89722740650177  1.0000
  H   H1        1.0  0.4127793312072754  0.029876481741666794  0.966112494468689  1.0000
  Fe  Fe3       1.0  0.5692779421806335  0.9091091752052306  0.611945390701294  1.0000
  Fe  Fe4       1.0  0.14609624445438385  0.06065325066447258  0.7496016621589661  1.0000
  H   H2        1.0  0.49591153860092163  0.6674096584320067  0.1237226203083992  1.0000
  Mn  Mn2       1.0  0.42896711826324463  0.6344164609909057  0.3456123471260071  1.0000
  Mn  Mn3       1.0  0.2770143747329712  0.12771289050579068  0.35603877902030945  1.0000
  H   H3        1.0  0.5654734373092651  0.3037739396095276  0.27155548334121704  1.0000
  H   H4        1.0  0.8469220995903015  0.8785954117774962  0.8334081768989563  1.0000
  Fe  Fe5       1.0  0.12410707026720047  0.8274190425872803  0.047765493392944336  1.0000
  Cr  Cr1       1.0  0.003045865800231695  0.7749620676040649  0.48080191016197205  1.0000
  Fe  Fe6       1.0  0.870853841304779  0.5095253586769104  0.20714296400547028  1.0000
  Mn  Mn4       1.0  0.8430940508842468  0.27565017342567444  0.4772116541862488  1.0000
  B   B1        1.0  0.9918150305747986  0.17018955945968628  0.12416722625494006  1.0000
  Fe  Fe7       1.0  0.705905020236969  0.21229195594787598  0.892174243927002  1.0000
  Fe  Fe8       1.0  0.3043770492076874  0.3530631959438324  0.042882144451141364  1.0000
  H   H5        1.0  0.7699589729309082  0.24530552327632904  0.6806244254112244  1.0000
  Cr  Cr2       1.0  0.9880632758140564  0.5621731877326965  0.7551500797271729  1.0000
