data_image0
_chemical_formula_structural       GdCoGdCoAs4
_chemical_formula_sum              "Gd2 Co2 As4"
_cell_length_a       3.9050026693850914
_cell_length_b       3.90443311605888
_cell_length_c       9.783490180969238
_cell_angle_alpha    90.03711775480119
_cell_angle_beta     90.01125865663205
_cell_angle_gamma    90.04650243037744

_space_group_name_H-M_alt    "P 1"
_space_group_IT_number       1

loop_
  _space_group_symop_operation_xyz
  'x, y, z'

loop_
  _atom_site_type_symbol
  _atom_site_label
  _atom_site_symmetry_multiplicity
  _atom_site_fract_x
  _atom_site_fract_y
  _atom_site_fract_z
  _atom_site_occupancy
  Gd  Gd1       1.0  0.024813879281282425  0.014730408787727354  0.2716910243034363  1.0000
  Co  Co1       1.0  0.024423152208328247  0.5152974724769591  0.012071877717971802  1.0000
  Gd  Gd2       1.0  0.5244140028953552  0.5152018070220947  0.7519561648368835  1.0000
  Co  Co2       1.0  0.524531364440918  0.015308531001210211  0.012479811906814575  1.0000
  As  As1       1.0  0.5248213410377502  0.014625289477407932  0.5117626786231995  1.0000
  As  As2       1.0  0.02425483614206314  0.015237370505928993  0.876296877861023  1.0000
  As  As3       1.0  0.5246813297271729  0.5149235129356383  0.14761731028556824  1.0000
  As  As4       1.0  0.02482125535607338  0.5149155259132385  0.511811375617981  1.0000
