data_image0
_chemical_formula_structural       Eu2AgSn
_chemical_formula_sum              "Eu2 Ag1 Sn1"
_cell_length_a       3.7217600223236245
_cell_length_b       3.7207939384084088
_cell_length_c       8.254609107971191
_cell_angle_alpha    90.06118733257523
_cell_angle_beta     90.05001998101649
_cell_angle_gamma    90.14930361010688

_space_group_name_H-M_alt    "P 1"
_space_group_IT_number       1

loop_
  _space_group_symop_operation_xyz
  'x, y, z'

loop_
  _atom_site_type_symbol
  _atom_site_label
  _atom_site_symmetry_multiplicity
  _atom_site_fract_x
  _atom_site_fract_y
  _atom_site_fract_z
  _atom_site_occupancy
  Eu  Eu1       1.0  0.7569190859794617  0.5546112060546876  0.2053181529045105  1.0000
  Eu  Eu2       1.0  0.7573243379592896  0.5551416277885437  0.6905173063278198  1.0000
  Ag  Ag1       1.0  0.25711971521377563  0.05495452135801315  0.4476677179336548  1.0000
  Sn  Sn1       1.0  0.257120281457901  0.05497302487492562  0.9481840133666992  1.0000
