data_image0
_chemical_formula_structural       AsGd2O2
_chemical_formula_sum              "As1 Gd2 O2"
_cell_length_a       3.8413468033860765
_cell_length_b       3.8405384899914745
_cell_length_c       6.951687335968018
_cell_angle_alpha    106.05583724606984
_cell_angle_beta     106.09553386857482
_cell_angle_gamma    90.02535614972871

_space_group_name_H-M_alt    "P 1"
_space_group_IT_number       1

loop_
  _space_group_symop_operation_xyz
  'x, y, z'

loop_
  _atom_site_type_symbol
  _atom_site_label
  _atom_site_symmetry_multiplicity
  _atom_site_fract_x
  _atom_site_fract_y
  _atom_site_fract_z
  _atom_site_occupancy
  As  As1       1.0  0.0906224772334099  0.7770015001296998  0.7834023237228394  1.0000
  Gd  Gd1       1.0  0.7482172846794128  0.43521001935005194  0.09980300813913345  1.0000
  Gd  Gd2       1.0  0.43094661831855774  0.11905412375926973  0.4674094617366791  1.0000
  O   O1        1.0  0.3396332561969757  0.5271279811859131  0.28341248631477356  1.0000
  O   O2        1.0  0.8402199745178223  0.026799775660037994  0.2832525372505188  1.0000
