data_image0
_chemical_formula_structural       CoNdPrCu
_chemical_formula_sum              "Co1 Nd1 Pr1 Cu1"
_cell_length_a       5.0140250125141375
_cell_length_b       5.013078851763556
_cell_length_c       5.013402462005615
_cell_angle_alpha    60.011346696039915
_cell_angle_beta     60.000571241357285
_cell_angle_gamma    59.99201056923862

_space_group_name_H-M_alt    "P 1"
_space_group_IT_number       1

loop_
  _space_group_symop_operation_xyz
  'x, y, z'

loop_
  _atom_site_type_symbol
  _atom_site_label
  _atom_site_symmetry_multiplicity
  _atom_site_fract_x
  _atom_site_fract_y
  _atom_site_fract_z
  _atom_site_occupancy
  Co  Co1       1.0  0.5260176062583923  0.7747814655303954  0.39504432678222656  1.0000
  Nd  Nd1       1.0  0.27598127722740173  0.5245044231414795  0.1451663076877594  1.0000
  Pr  Pr1       1.0  0.7761243581771851  0.024822261184453964  0.6448665261268616  1.0000
  Cu  Cu1       1.0  0.02602297998964788  0.27468228340148926  0.895010769367218  1.0000
