data_image0
_chemical_formula_structural       EuSiEuBOsSiOs
_chemical_formula_sum              "Eu2 Si2 B1 Os2"
_cell_length_a       4.24291605953628
_cell_length_b       6.0403365806460965
_cell_length_c       6.015079975128174
_cell_angle_alpha    75.08168551108558
_cell_angle_beta     69.33831064095634
_cell_angle_gamma    69.44740343929887

_space_group_name_H-M_alt    "P 1"
_space_group_IT_number       1

loop_
  _space_group_symop_operation_xyz
  'x, y, z'

loop_
  _atom_site_type_symbol
  _atom_site_label
  _atom_site_symmetry_multiplicity
  _atom_site_fract_x
  _atom_site_fract_y
  _atom_site_fract_z
  _atom_site_occupancy
  Eu  Eu1       1.0  0.7680104374885558  0.47101622819900507  0.25328949093818665  1.0000
  Si  Si1       1.0  0.03317151218652725  0.9085468053817749  0.2838713526725769  1.0000
  Eu  Eu2       1.0  0.6248209476470946  0.1381482481956482  0.8710991144180298  1.0000
  B   B1        1.0  0.1965680420398712  0.3045741319656372  0.5617488622665405  1.0000
  Os  Os1       1.0  0.9874894618988036  0.6276825070381165  0.6561682820320129  1.0000
  Si  Si2       1.0  0.3596953749656677  0.7004241347312927  0.8397505879402161  1.0000
  Os  Os2       1.0  0.4053634703159332  0.9820262193679811  0.46698525547981257  1.0000
