data_image0
_chemical_formula_structural       HCH3
_chemical_formula_sum              "H4 C1"
_cell_length_a       3.906489251647858
_cell_length_b       3.8755546073754386
_cell_length_c       3.9212393760681152
_cell_angle_alpha    82.64039889369461
_cell_angle_beta     81.65452230381386
_cell_angle_gamma    84.08892457048297

_space_group_name_H-M_alt    "P 1"
_space_group_IT_number       1

loop_
  _space_group_symop_operation_xyz
  'x, y, z'

loop_
  _atom_site_type_symbol
  _atom_site_label
  _atom_site_symmetry_multiplicity
  _atom_site_fract_x
  _atom_site_fract_y
  _atom_site_fract_z
  _atom_site_occupancy
  H   H1        1.0  0.7747622132301332  0.1904601752758026  0.8286572098731996  1.0000
  C   C1        1.0  0.5865045189857483  0.3542454242706299  0.9965674877166749  1.0000
  H   H2        1.0  0.4249821603298188  0.542285680770874  0.8340713977813722  1.0000
  H   H3        1.0  0.4167173802852631  0.18538105487823486  0.1865915507078171  1.0000
  H   H4        1.0  0.7301436662673951  0.4968204796314239  0.14007037878036502  1.0000
