data_image0
_chemical_formula_structural       OTa2FeMoO3TaMoO8
_chemical_formula_sum              "O12 Ta3 Fe1 Mo2"
_cell_length_a       5.564852161069728
_cell_length_b       5.7334591939369
_cell_length_c       8.8114595413208
_cell_angle_alpha    81.6477053593561
_cell_angle_beta     79.91732537492373
_cell_angle_gamma    64.94420168903282

_space_group_name_H-M_alt    "P 1"
_space_group_IT_number       1

loop_
  _space_group_symop_operation_xyz
  'x, y, z'

loop_
  _atom_site_type_symbol
  _atom_site_label
  _atom_site_symmetry_multiplicity
  _atom_site_fract_x
  _atom_site_fract_y
  _atom_site_fract_z
  _atom_site_occupancy
  O   O1        1.0  0.8523898720741272  0.7116585969924927  0.24574579298496246  1.0000
  Ta  Ta1       1.0  0.07800412923097615  0.8613430857658386  0.33941254019737244  1.0000
  Ta  Ta2       1.0  0.7266756296157837  0.6639724969863892  0.060210052877664566  1.0000
  Fe  Fe1       1.0  0.9843865036964417  0.07846657186746597  0.8120888471603394  1.0000
  Mo  Mo1       1.0  0.49191367626190186  0.15461096167564392  0.524925947189331  1.0000
  O   O2        1.0  0.24658158421516416  0.7251975536346436  0.7687891721725464  1.0000
  O   O3        1.0  0.6835269927978516  0.9585584998130798  0.933307945728302  1.0000
  O   O4        1.0  0.35181853175163275  0.7899880409240723  0.1631128042936325  1.0000
  Ta  Ta3       1.0  0.39367276430130005  0.39770078659057617  0.8482736945152283  1.0000
  Mo  Mo2       1.0  0.8931254148483276  0.4371026158332824  0.4528734087944031  1.0000
  O   O5        1.0  0.26454827189445496  0.21539625525474548  0.732640266418457  1.0000
  O   O6        1.0  0.7683328986167908  0.20701952278614044  0.32930946350097656  1.0000
  O   O7        1.0  0.6997047662734985  0.2887628376483917  0.6496677994728088  1.0000
  O   O8        1.0  0.11670773476362233  0.42763552069663996  0.015238778665661812  1.0000
  O   O9        1.0  0.6804815530776978  0.4218125939369202  0.9492624402046204  1.0000
  O   O10       1.0  0.21499565243721014  0.0500950664281845  0.44126588106155396  1.0000
  O   O11       1.0  0.7750994563102724  0.8136041164398192  0.5289840698242188  1.0000
  O   O12       1.0  0.24784202873706815  0.5122119784355164  0.43698209524154663  1.0000
