data_image0
_chemical_formula_structural       Pd2FePdFeVFePd2FePd
_chemical_formula_sum              "Pd6 Fe4 V1"
_cell_length_a       3.7976823810320317
_cell_length_b       6.070710030583057
_cell_length_c       7.179020881652832
_cell_angle_alpha    105.10004806515283
_cell_angle_beta     105.31959660514316
_cell_angle_gamma    90.00242094008394

_space_group_name_H-M_alt    "P 1"
_space_group_IT_number       1

loop_
  _space_group_symop_operation_xyz
  'x, y, z'

loop_
  _atom_site_type_symbol
  _atom_site_label
  _atom_site_symmetry_multiplicity
  _atom_site_fract_x
  _atom_site_fract_y
  _atom_site_fract_z
  _atom_site_occupancy
  Pd  Pd1       1.0  0.8524606823921204  0.6463379263877869  0.8813170790672301  1.0000
  Pd  Pd2       1.0  0.21200735867023468  0.44743114709854126  0.6001458764076233  1.0000
  Fe  Fe1       1.0  0.5826281309127808  0.27480825781822205  0.34094360470771784  1.0000
  Pd  Pd3       1.0  0.9519392251968385  0.0986165851354599  0.07958307117223742  1.0000
  Fe  Fe2       1.0  0.6702218651771545  0.7446134686470032  0.5169883966445923  1.0000
  V   V1        1.0  0.12742260098457336  0.010217792354524136  0.42994615435600275  1.0000
  Fe  Fe3       1.0  0.7601760029792786  0.19019009172916415  0.695181369781494  1.0000
  Pd  Pd4       1.0  0.04097906872630119  0.5723034143447876  0.25783979892730713  1.0000
  Pd  Pd5       1.0  0.3011867105960846  0.9213700890541077  0.7787323594093322  1.0000
  Fe  Fe4       1.0  0.4927802979946137  0.8291535377502443  0.16264528036117556  1.0000
  Pd  Pd6       1.0  0.40064188838005066  0.3735629618167877  0.9770644307136535  1.0000
