data_image0
_chemical_formula_structural       Co2MnCSn
_chemical_formula_sum              "Co2 Mn1 C1 Sn1"
_cell_length_a       3.8682430655156046
_cell_length_b       3.847270832594161
_cell_length_c       3.8661201000213623
_cell_angle_alpha    89.97577582372254
_cell_angle_beta     89.94541562800511
_cell_angle_gamma    89.98976405063918

_space_group_name_H-M_alt    "P 1"
_space_group_IT_number       1

loop_
  _space_group_symop_operation_xyz
  'x, y, z'

loop_
  _atom_site_type_symbol
  _atom_site_label
  _atom_site_symmetry_multiplicity
  _atom_site_fract_x
  _atom_site_fract_y
  _atom_site_fract_z
  _atom_site_occupancy
  Co  Co1       1.0  0.7264203429222107  0.04806140437722206  0.06733370572328568  1.0000
  Co  Co2       1.0  0.2264416366815567  0.048065021634101875  0.5671173334121704  1.0000
  Mn  Mn1       1.0  0.7267263531684875  0.5482105016708374  0.5674834251403809  1.0000
  C   C1        1.0  0.7264995574951172  0.04799987375736237  0.5675250291824341  1.0000
  Sn  Sn1       1.0  0.22651033103466034  0.5479663014411927  0.06742517650127411  1.0000
