data_image0
_chemical_formula_structural       Na2FNaTiFeFTiF10
_chemical_formula_sum              "Na3 F12 Ti2 Fe1"
_cell_length_a       5.521074082909896
_cell_length_b       5.522146703986387
_cell_length_c       9.615816116333008
_cell_angle_alpha    90.00160759899089
_cell_angle_beta     89.95510084227602
_cell_angle_gamma    119.9889109211148

_space_group_name_H-M_alt    "P 1"
_space_group_IT_number       1

loop_
  _space_group_symop_operation_xyz
  'x, y, z'

loop_
  _atom_site_type_symbol
  _atom_site_label
  _atom_site_symmetry_multiplicity
  _atom_site_fract_x
  _atom_site_fract_y
  _atom_site_fract_z
  _atom_site_occupancy
  Na  Na1       1.0  0.8293743133544922  0.18997712433338168  0.9802981019020081  1.0000
  Na  Na2       1.0  0.1625884175300599  0.8569526672363282  0.23133552074432373  1.0000
  F   F1        1.0  0.2125057429075241  0.23753446340560913  0.09092056006193161  1.0000
  Na  Na3       1.0  0.16234509646892548  0.8566705584526062  0.7294246554374695  1.0000
  Ti  Ti1       1.0  0.4959760606288911  0.5236065983772279  0.9804018139839172  1.0000
  Fe  Fe1       1.0  0.4957944452762604  0.5233961939811707  0.48035377264022827  1.0000
  F   F2        1.0  0.49351948499679565  0.2377247661352158  0.8698699474334717  1.0000
  Ti  Ti2       1.0  0.8290685415267944  0.19006367027759552  0.48033231496810913  1.0000
  F   F3        1.0  0.5309693813323976  0.8742654323577882  0.5908587574958801  1.0000
  F   F4        1.0  0.8116015195846558  0.4883947968482972  0.5906468033790588  1.0000
  F   F5        1.0  0.7823007702827454  0.8072212338447572  0.8699601888656616  1.0000
  F   F6        1.0  0.49359533190727234  0.8070257902145386  0.09106039255857468  1.0000
  F   F7        1.0  0.1451699435710907  0.2077000141143799  0.5906252264976501  1.0000
  F   F8        1.0  0.78143709897995  0.5258997678756714  0.09094180911779404  1.0000
  F   F9        1.0  0.5309004187583923  0.20748214423656466  0.3702673017978668  1.0000
  F   F10       1.0  0.8118414282798767  0.8739976286888124  0.3699299097061157  1.0000
  F   F11       1.0  0.21236979961395264  0.5259783864021301  0.8699232935905457  1.0000
  F   F12       1.0  0.14519470930099487  0.48831155896186834  0.3701578676700592  1.0000
