data_image0
_chemical_formula_structural       Co3TbCo2TbCo5
_chemical_formula_sum              "Co10 Tb2"
_cell_length_a       4.810449765353046
_cell_length_b       4.807756702366855
_cell_length_c       8.529129981994629
_cell_angle_alpha    73.70638795095833
_cell_angle_beta     73.6478266216817
_cell_angle_gamma    59.91130759189553

_space_group_name_H-M_alt    "P 1"
_space_group_IT_number       1

loop_
  _space_group_symop_operation_xyz
  'x, y, z'

loop_
  _atom_site_type_symbol
  _atom_site_label
  _atom_site_symmetry_multiplicity
  _atom_site_fract_x
  _atom_site_fract_y
  _atom_site_fract_z
  _atom_site_occupancy
  Co  Co1       1.0  0.036625560373067856  0.615237295627594  0.2364061325788498  1.0000
  Co  Co2       1.0  0.28238904476165777  0.3605603873729705  0.00028824806213377605  1.0000
  Co  Co3       1.0  0.12466689944267273  0.7027971744537354  0.4724297523498535  1.0000
  Tb  Tb1       1.0  0.8398746252059937  0.4176870584487915  0.8286768794059753  1.0000
  Co  Co4       1.0  0.12420709431171417  0.2023469805717468  0.4733404517173767  1.0000
  Co  Co5       1.0  0.703175961971283  0.2815859317779541  0.23702138662338257  1.0000
  Tb  Tb2       1.0  0.5667922496795654  0.14554934203624725  0.6453313827514648  1.0000
  Co  Co6       1.0  0.37060636281967163  0.9491129517555237  0.236730694770813  1.0000
  Co  Co7       1.0  0.6242265701293945  0.702947199344635  0.4731702208518982  1.0000
  Co  Co8       1.0  0.7821592688560486  0.8605681657791138  0.000529657001607133  1.0000
  Co  Co9       1.0  0.2823578119277954  0.8599664568901062  0.0009364467114210129  1.0000
  Co  Co10      1.0  0.20335400104522705  0.7816230654716492  0.7367709279060364  1.0000
