data_image0
_chemical_formula_structural       Fe2MgFeOFe2O7
_chemical_formula_sum              "Fe5 Mg1 O8"
_cell_length_a       3.268719173056503
_cell_length_b       3.2706884841457526
_cell_length_c       17.31370735168457
_cell_angle_alpha    90.0526496057043
_cell_angle_beta     89.97921140896112
_cell_angle_gamma    119.97806523516769

_space_group_name_H-M_alt    "P 1"
_space_group_IT_number       1

loop_
  _space_group_symop_operation_xyz
  'x, y, z'

loop_
  _atom_site_type_symbol
  _atom_site_label
  _atom_site_symmetry_multiplicity
  _atom_site_fract_x
  _atom_site_fract_y
  _atom_site_fract_z
  _atom_site_occupancy
  Fe  Fe1       1.0  0.029444197192788124  0.827289342880249  0.2973121404647827  1.0000
  Fe  Fe2       1.0  0.6949182152748108  0.15926875174045563  0.6253253221511841  1.0000
  Mg  Mg1       1.0  0.36176562309265137  0.4936898946762085  0.9566296339035034  1.0000
  Fe  Fe3       1.0  0.02853432670235634  0.8265488147735596  0.7949028015136719  1.0000
  O   O1        1.0  0.3621332049369812  0.49368080496788025  0.32275646924972534  1.0000
  Fe  Fe4       1.0  0.694705069065094  0.16020746529102325  0.1265314817428589  1.0000
  Fe  Fe5       1.0  0.36158764362335205  0.4930022954940796  0.45355117321014404  1.0000
  O   O2        1.0  0.36236798763275146  0.49470558762550354  0.07187112420797348  1.0000
  O   O3        1.0  0.3611205816268921  0.49223679304122925  0.565677285194397  1.0000
  O   O4        1.0  0.028927985578775406  0.82722008228302  0.9191191792488098  1.0000
  O   O5        1.0  0.028156287968158722  0.8263310790061951  0.4326179623603821  1.0000
  O   O6        1.0  0.02900092303752899  0.8277765512466431  0.18517562747001648  1.0000
  O   O7        1.0  0.6949564218521118  0.1594964861869812  0.7943485379219055  1.0000
  O   O8        1.0  0.02789781056344509  0.8260026574134827  0.6748294234275818  1.0000
