data_image0
_chemical_formula_structural       Fe2LiFe3LiN2Fe
_chemical_formula_sum              "Fe6 Li2 N2"
_cell_length_a       2.66917774084554
_cell_length_b       5.133737970012334
_cell_length_c       8.268570899963379
_cell_angle_alpha    88.28585041176039
_cell_angle_beta     80.8021144487986
_cell_angle_gamma    74.90404170069742

_space_group_name_H-M_alt    "P 1"
_space_group_IT_number       1

loop_
  _space_group_symop_operation_xyz
  'x, y, z'

loop_
  _atom_site_type_symbol
  _atom_site_label
  _atom_site_symmetry_multiplicity
  _atom_site_fract_x
  _atom_site_fract_y
  _atom_site_fract_z
  _atom_site_occupancy
  Fe  Fe1       1.0  0.7394843101501465  0.38663744926452637  0.8355306386947632  1.0000
  Fe  Fe2       1.0  0.9888779520988465  0.6448178887367249  0.08164374530315399  1.0000
  Li  Li1       1.0  0.7759751677513123  0.598723828792572  0.5509493947029114  1.0000
  Fe  Fe3       1.0  0.029606305062770844  0.8391106724739074  0.8003078103065491  1.0000
  Fe  Fe4       1.0  0.2792697846889496  0.0966935083270073  0.04821450263261795  1.0000
  Fe  Fe5       1.0  0.5285990834236145  0.34076863527297974  0.3058837354183197  1.0000
  Li  Li2       1.0  0.242981031537056  0.8839573860168457  0.3316440284252167  1.0000
  N   N1        1.0  0.3918125331401825  0.11081086099147797  0.8047055602073669  1.0000
  N   N2        1.0  0.6259523034095764  0.3733742833137512  0.07898087054491043  1.0000
  Fe  Fe6       1.0  0.4920198321342469  0.13980121910572052  0.5769960880279541  1.0000
