data_image0
_chemical_formula_structural       Cr2FeOSFeOS
_chemical_formula_sum              "Cr2 Fe2 O2 S2"
_cell_length_a       3.2904495078529856
_cell_length_b       5.803639508786275
_cell_length_c       6.312134742736816
_cell_angle_alpha    96.38379789302174
_cell_angle_beta     105.07526730890147
_cell_angle_gamma    89.95159025066854

_space_group_name_H-M_alt    "P 1"
_space_group_IT_number       1

loop_
  _space_group_symop_operation_xyz
  'x, y, z'

loop_
  _atom_site_type_symbol
  _atom_site_label
  _atom_site_symmetry_multiplicity
  _atom_site_fract_x
  _atom_site_fract_y
  _atom_site_fract_z
  _atom_site_occupancy
  Cr  Cr1       1.0  0.07942184060811996  0.9512611031532286  0.5089667439460754  1.0000
  Cr  Cr2       1.0  0.5944235324859619  0.5085341334342957  0.5417007207870483  1.0000
  Fe  Fe1       1.0  0.3360985219478607  0.72954523563385  0.02372967824339865  1.0000
  O   O1        1.0  0.1735745668411255  0.6756839156150817  0.69880610704422  1.0000
  S   S1        1.0  0.6977400183677673  0.17685286700725555  0.7473517656326294  1.0000
  Fe  Fe2       1.0  0.33650684356689453  0.23022419214248654  0.024143533781170845  1.0000
  O   O2        1.0  0.4991767108440399  0.7836324572563171  0.3509393334388733  1.0000
  S   S2        1.0  0.9756338596343994  0.2832483351230621  0.30464455485343933  1.0000
