data_image0
_chemical_formula_structural       Gd2B2Ni2BNiBNi3
_chemical_formula_sum              "Gd2 B4 Ni6"
_cell_length_a       5.095090925530262
_cell_length_b       6.007051154747458
_cell_length_c       5.568052291870117
_cell_angle_alpha    100.16847346124715
_cell_angle_beta     90.00875197677946
_cell_angle_gamma    115.0432530144751

_space_group_name_H-M_alt    "P 1"
_space_group_IT_number       1

loop_
  _space_group_symop_operation_xyz
  'x, y, z'

loop_
  _atom_site_type_symbol
  _atom_site_label
  _atom_site_symmetry_multiplicity
  _atom_site_fract_x
  _atom_site_fract_y
  _atom_site_fract_z
  _atom_site_occupancy
  Gd  Gd1       1.0  0.061559222638607025  0.03441396728157997  0.40629059076309204  1.0000
  Gd  Gd2       1.0  0.35704827308654785  0.6257759928703308  0.1298246532678604  1.0000
  B   B1        1.0  0.4788874387741089  0.8711898922920228  0.6313353180885315  1.0000
  B   B2        1.0  0.629599928855896  0.1719805896282196  0.1865701675415039  1.0000
  Ni  Ni1       1.0  0.8122591376304626  0.050188913941383355  0.9029403328895569  1.0000
  Ni  Ni2       1.0  0.6433987617492676  0.20038948953151706  0.5482906699180603  1.0000
  B   B3        1.0  0.7886948585510254  0.4881178438663483  0.3488846719264984  1.0000
  Ni  Ni3       1.0  0.3256377875804901  0.05073674023151398  0.902707576751709  1.0000
  B   B4        1.0  0.9382102489471436  0.7879860997200012  0.9048113822937012  1.0000
  Ni  Ni4       1.0  0.09245344251394272  0.6089136004447937  0.6337229013442993  1.0000
  Ni  Ni5       1.0  0.6059503555297852  0.6093903183937073  0.6329013109207153  1.0000
  Ni  Ni6       1.0  0.7739694118499756  0.45881202816963196  0.9873757362365723  1.0000
