data_image0
_chemical_formula_structural       Be4FeBe2Fe2BeFe2
_chemical_formula_sum              "Be7 Fe5"
_cell_length_a       3.331352618727224
_cell_length_b       3.3045204252086644
_cell_length_c       10.387222290039062
_cell_angle_alpha    99.09912551907908
_cell_angle_beta     99.17841646895506
_cell_angle_gamma    89.96619311266598

_space_group_name_H-M_alt    "P 1"
_space_group_IT_number       1

loop_
  _space_group_symop_operation_xyz
  'x, y, z'

loop_
  _atom_site_type_symbol
  _atom_site_label
  _atom_site_symmetry_multiplicity
  _atom_site_fract_x
  _atom_site_fract_y
  _atom_site_fract_z
  _atom_site_occupancy
  Be  Be1       1.0  0.6827123761177063  0.4591681957244873  0.9783872961997986  1.0000
  Be  Be2       1.0  0.5991144180297852  0.8754686117172241  0.8119392395019531  1.0000
  Be  Be3       1.0  0.01460921298712492  0.7905740141868591  0.6426575779914856  1.0000
  Be  Be4       1.0  0.34695708751678467  0.12228710204362868  0.3066560924053192  1.0000
  Fe  Fe1       1.0  0.7694503664970398  0.0453147292137146  0.15161167085170746  1.0000
  Be  Be5       1.0  0.42979857325553894  0.7060697674751282  0.47290685772895813  1.0000
  Be  Be6       1.0  0.8469187021255493  0.6223122477531433  0.3060230016708374  1.0000
  Fe  Fe2       1.0  0.1029168963432312  0.3793940246105194  0.818827211856842  1.0000
  Fe  Fe3       1.0  0.26016029715538025  0.5357488989830017  0.13324937224388123  1.0000
  Be  Be7       1.0  0.18356287479400635  0.9601219892501831  0.9796040058135986  1.0000
  Fe  Fe4       1.0  0.5144442319869995  0.29024988412857056  0.6428588032722473  1.0000
  Fe  Fe5       1.0  0.9256772398948669  0.20164628326892853  0.46477898955345154  1.0000
