data_image0
_chemical_formula_structural       MnO4GdPbMnO2
_chemical_formula_sum              "Mn2 O6 Gd1 Pb1"
_cell_length_a       5.46047127284206
_cell_length_b       5.465032814192384
_cell_length_c       5.46445894241333
_cell_angle_alpha    61.35524189598476
_cell_angle_beta     61.382718681043364
_cell_angle_gamma    61.40075044492688

_space_group_name_H-M_alt    "P 1"
_space_group_IT_number       1

loop_
  _space_group_symop_operation_xyz
  'x, y, z'

loop_
  _atom_site_type_symbol
  _atom_site_label
  _atom_site_symmetry_multiplicity
  _atom_site_fract_x
  _atom_site_fract_y
  _atom_site_fract_z
  _atom_site_occupancy
  Mn  Mn1       1.0  0.4422403872013092  0.8842732310295105  0.9753339886665344  1.0000
  O   O1        1.0  0.24820964038372043  0.5763436555862427  0.22519898414611816  1.0000
  O   O2        1.0  0.13456673920154572  0.13187560439109802  0.7808240652084351  1.0000
  O   O3        1.0  0.690281093120575  0.6893419027328491  0.6676169633865356  1.0000
  O   O4        1.0  0.6076475977897644  0.21786421537399292  0.7237681746482849  1.0000
  Gd  Gd1       1.0  0.19230973720550537  0.6336431503295898  0.7232473492622375  1.0000
  Pb  Pb1       1.0  0.6910956501960754  0.13344015181064606  0.22455763816833496  1.0000
  Mn  Mn2       1.0  0.940666139125824  0.38237822055816656  0.47382706403732294  1.0000
  O   O5        1.0  0.19132670760154724  0.04991300776600838  0.30912545323371887  1.0000
  O   O6        1.0  0.7762939929962158  0.6339370608329773  0.14006224274635323  1.0000
