data_image0
_chemical_formula_structural       Fe4RhFeRhFe2Rh
_chemical_formula_sum              "Fe7 Rh3"
_cell_length_a       2.9283823237619946
_cell_length_b       5.907827145716314
_cell_length_c       7.753427982330322
_cell_angle_alpha    78.98112490383812
_cell_angle_beta     79.14597744775891
_cell_angle_gamma    90.00866322853193

_space_group_name_H-M_alt    "P 1"
_space_group_IT_number       1

loop_
  _space_group_symop_operation_xyz
  'x, y, z'

loop_
  _atom_site_type_symbol
  _atom_site_label
  _atom_site_symmetry_multiplicity
  _atom_site_fract_x
  _atom_site_fract_y
  _atom_site_fract_z
  _atom_site_occupancy
  Fe  Fe1       1.0  0.4780457317829132  0.5420628786087036  0.7939032912254335  1.0000
  Fe  Fe2       1.0  0.2698274254798889  0.4487994611263275  0.20979863405227664  1.0000
  Fe  Fe3       1.0  0.4794763922691345  0.062018860131502145  0.791098177433014  1.0000
  Fe  Fe4       1.0  0.6761162877082825  0.6423131227493286  0.3984678685665131  1.0000
  Rh  Rh1       1.0  0.8759656548500061  0.7524113655090332  0.9981970787048341  1.0000
  Fe  Fe5       1.0  0.26685991883277893  0.9450676441192627  0.21540215611457827  1.0000
  Rh  Rh2       1.0  0.07508597522974014  0.8500409722328186  0.5993685126304628  1.0000
  Fe  Fe6       1.0  0.07640068978071213  0.3518514633178711  0.5964027047157289  1.0000
  Fe  Fe7       1.0  0.6757029294967651  0.15832863748073578  0.3984577059745789  1.0000
  Rh  Rh3       1.0  0.87291419506073  0.2481193244457245  0.003399014472961426  1.0000
