data_image0
_chemical_formula_structural       GdOGd2O5GdO
_chemical_formula_sum              "Gd4 O7"
_cell_length_a       5.89509275897233
_cell_length_b       6.064271697703438
_cell_length_c       6.067000865936279
_cell_angle_alpha    106.38748337988618
_cell_angle_beta     95.36638635908494
_cell_angle_gamma    95.46119657972595

_space_group_name_H-M_alt    "P 1"
_space_group_IT_number       1

loop_
  _space_group_symop_operation_xyz
  'x, y, z'

loop_
  _atom_site_type_symbol
  _atom_site_label
  _atom_site_symmetry_multiplicity
  _atom_site_fract_x
  _atom_site_fract_y
  _atom_site_fract_z
  _atom_site_occupancy
  Gd  Gd1       1.0  0.7955299019813538  0.1265910118818283  0.12604738771915433  1.0000
  O   O1        1.0  0.45416608452796936  0.9331123232841492  0.9317178726196289  1.0000
  Gd  Gd2       1.0  0.20034664869308472  0.07467599213123322  0.6997779607772827  1.0000
  Gd  Gd3       1.0  0.2003582864999771  0.699237287044525  0.07371091842651363  1.0000
  O   O2        1.0  0.014924542978405952  0.9752073884010315  0.34188929200172424  1.0000
  O   O3        1.0  0.01389594841748476  0.340788871049881  0.9738479256629944  1.0000
  O   O4        1.0  0.38535451889038086  0.8005052804946898  0.43154698610305786  1.0000
  O   O5        1.0  0.3870481252670288  0.4323868751525879  0.7992420196533203  1.0000
  O   O6        1.0  0.69953453540802  0.3874974250793457  0.3860452473163605  1.0000
  Gd  Gd4       1.0  0.6048235893249512  0.6483633518218994  0.6473953127861023  1.0000
  O   O7        1.0  0.9466654062271118  0.840078592300415  0.8411211967468262  1.0000
