data_image0
_chemical_formula_structural       Fe20
_chemical_formula_sum              "Fe20"
_cell_length_a       6.193271628502679
_cell_length_b       6.203214248802624
_cell_length_c       6.195275783538818
_cell_angle_alpha    90.00921642921739
_cell_angle_beta     89.9611728779617
_cell_angle_gamma    89.97628808862805

_space_group_name_H-M_alt    "P 1"
_space_group_IT_number       1

loop_
  _space_group_symop_operation_xyz
  'x, y, z'

loop_
  _atom_site_type_symbol
  _atom_site_label
  _atom_site_symmetry_multiplicity
  _atom_site_fract_x
  _atom_site_fract_y
  _atom_site_fract_z
  _atom_site_occupancy
  Fe  Fe1       1.0  0.960393488407135  0.9311888217926024  0.032238397747278214  1.0000
  Fe  Fe2       1.0  0.07016685605049133  0.6648670434951781  0.719162344932556  1.0000
  Fe  Fe3       1.0  0.9778148531913757  0.5727103352546692  0.22029234468936917  1.0000
  Fe  Fe4       1.0  0.14931634068489075  0.9147202372550964  0.39049762487411493  1.0000
  Fe  Fe5       1.0  0.5689825415611267  0.07231003046035767  0.9703936576843261  1.0000
  Fe  Fe6       1.0  0.4610523283481598  0.8057587146759033  0.6576279401779174  1.0000
  Fe  Fe7       1.0  0.7111579179763794  0.681278645992279  0.9074628949165343  1.0000
  Fe  Fe8       1.0  0.3193555772304535  0.7442432641983032  0.04895102977752685  1.0000
  Fe  Fe9       1.0  0.8975841999053955  0.32238200306892395  0.8914231061935424  1.0000
  Fe  Fe10      1.0  0.7275384068489075  0.49433636665344244  0.5490140914916992  1.0000
  Fe  Fe11      1.0  0.22667568922042847  0.2439959943294525  0.14144468307495117  1.0000
  Fe  Fe12      1.0  0.8196889162063599  0.9929083585739135  0.6407771110534668  1.0000
  Fe  Fe13      1.0  0.8357957005500793  0.18151763081550598  0.28247278928756714  1.0000
  Fe  Fe14      1.0  0.47746869921684265  0.16447667777538297  0.47033515572547907  1.0000
  Fe  Fe15      1.0  0.21061396598815918  0.05618453025817871  0.781570017337799  1.0000
  Fe  Fe16      1.0  0.39913564920425415  0.414881557226181  0.8000894188880919  1.0000
  Fe  Fe17      1.0  0.6479825973510742  0.8224400281906128  0.29884883761405945  1.0000
  Fe  Fe18      1.0  0.5860772728919983  0.43080458045005804  0.15836414694786072  1.0000
  Fe  Fe19      1.0  0.33634117245674133  0.5564119815826416  0.4084008336067199  1.0000
  Fe  Fe20      1.0  0.08555483818054199  0.30563613772392273  0.5331192016601562  1.0000
