data_image0
_chemical_formula_structural       Mn2OMn2OMnO2MnO4
_chemical_formula_sum              "Mn6 O8"
_cell_length_a       3.1716831500711025
_cell_length_b       5.232055336625951
_cell_length_c       9.824790954589844
_cell_angle_alpha    82.59883050182972
_cell_angle_beta     89.280694791051
_cell_angle_gamma    89.75809086998588

_space_group_name_H-M_alt    "P 1"
_space_group_IT_number       1

loop_
  _space_group_symop_operation_xyz
  'x, y, z'

loop_
  _atom_site_type_symbol
  _atom_site_label
  _atom_site_symmetry_multiplicity
  _atom_site_fract_x
  _atom_site_fract_y
  _atom_site_fract_z
  _atom_site_occupancy
  Mn  Mn1       1.0  0.1865098774433136  0.5490438938140869  0.08631636202335358  1.0000
  Mn  Mn2       1.0  0.6935059428215027  0.05572473257780075  0.1759059876203537  1.0000
  O   O1        1.0  0.1996496617794037  0.24041089415550232  0.2529279887676239  1.0000
  Mn  Mn3       1.0  0.6855167746543884  0.09848927706480026  0.887470006942749  1.0000
  Mn  Mn4       1.0  0.7458950877189636  0.5519425272941589  0.6506287455558777  1.0000
  O   O2        1.0  0.8102536797523499  0.2903846502304077  0.5148677229881287  1.0000
  Mn  Mn5       1.0  0.2488536536693573  0.055014993995428085  0.6152284741401672  1.0000
  O   O3        1.0  0.30640697479248047  0.31415101885795593  0.752924919128418  1.0000
  O   O4        1.0  0.6888493895530701  0.35763639211654663  0.01563318446278572  1.0000
  Mn  Mn6       1.0  0.18960876762866974  0.5072264671325684  0.3781002461910248  1.0000
  O   O5        1.0  0.11170236766338348  0.9292889833450317  0.013154102489352238  1.0000
  O   O6        1.0  0.20570291578769684  0.7293950319290161  0.5304265022277832  1.0000
  O   O7        1.0  0.62767493724823  0.6797542572021484  0.2568144202232361  1.0000
  O   O8        1.0  0.7014415860176086  0.8743422031402589  0.7373343110084534  1.0000
