data_image0
_chemical_formula_structural       MnLiMnOLiO5
_chemical_formula_sum              "Mn2 Li2 O6"
_cell_length_a       3.843332505183074
_cell_length_b       6.115688118016946
_cell_length_c       6.116150379180908
_cell_angle_alpha    54.83547609643049
_cell_angle_beta     71.57387321864265
_cell_angle_gamma    71.51212773270595

_space_group_name_H-M_alt    "P 1"
_space_group_IT_number       1

loop_
  _space_group_symop_operation_xyz
  'x, y, z'

loop_
  _atom_site_type_symbol
  _atom_site_label
  _atom_site_symmetry_multiplicity
  _atom_site_fract_x
  _atom_site_fract_y
  _atom_site_fract_z
  _atom_site_occupancy
  Mn  Mn1       1.0  0.971274733543396  0.2740615606307983  0.13488787412643433  1.0000
  Li  Li1       1.0  0.6540883779525757  0.8380711674690247  0.20827986299991616  1.0000
  Mn  Mn2       1.0  0.972080886363983  0.7650377750396729  0.6440628767013551  1.0000
  O   O1        1.0  0.47089827060699463  0.7877719998359679  0.6221830248832704  1.0000
  Li  Li2       1.0  0.2889595627784729  0.20143797993659973  0.5703125  1.0000
  O   O2        1.0  0.8459574580192566  0.6448047757148743  0.01444887463003397  1.0000
  O   O3        1.0  0.4727480411529541  0.25013071298599243  0.15660250186920166  1.0000
  O   O4        1.0  0.09715136140584946  0.3947886228561401  0.7637826204299927  1.0000
  O   O5        1.0  0.843259334564209  0.147018164396286  0.5155231356620789  1.0000
  O   O6        1.0  0.09997079521417623  0.892595887184143  0.26294368505477916  1.0000
