data_image0
_chemical_formula_structural       CaCrLaRuLa2O2CrO2RuO6RhO
_chemical_formula_sum              "Ca1 Cr2 La3 Ru2 O11 Rh1"
_cell_length_a       5.648016604600977
_cell_length_b       5.791211895748033
_cell_length_c       7.914164066314697
_cell_angle_alpha    89.87136273199127
_cell_angle_beta     90.7457566615498
_cell_angle_gamma    91.59546630773806

_space_group_name_H-M_alt    "P 1"
_space_group_IT_number       1

loop_
  _space_group_symop_operation_xyz
  'x, y, z'

loop_
  _atom_site_type_symbol
  _atom_site_label
  _atom_site_symmetry_multiplicity
  _atom_site_fract_x
  _atom_site_fract_y
  _atom_site_fract_z
  _atom_site_occupancy
  Ca  Ca1       1.0  0.8252815008163452  0.34944674372673035  0.5904085040092468  1.0000
  Cr  Cr1       1.0  0.8374595046043396  0.9037773609161377  0.34506240487098694  1.0000
  La  La1       1.0  0.3270893096923828  0.9619047641754152  0.10322480648756026  1.0000
  Ru  Ru1       1.0  0.8262483477592468  0.9085059762001039  0.8391844630241393  1.0000
  La  La2       1.0  0.8409813642501831  0.4430247247219086  0.10343030840158461  1.0000
  La  La3       1.0  0.35442376136779785  0.8492091298103333  0.5787626504898071  1.0000
  O   O1        1.0  0.9201903939247131  0.9382407665252687  0.5923022031784058  1.0000
  O   O2        1.0  0.7476275563240051  0.878201961517334  0.09297559410333633  1.0000
  Cr  Cr2       1.0  0.35104647278785706  0.3751561641693115  0.8316409587860106  1.0000
  O   O3        1.0  0.5457432866096497  0.1084742695093155  0.3824986219406128  1.0000
  O   O4        1.0  0.12827640771865845  0.6996262073516846  0.3038040995597839  1.0000
  Ru  Ru2       1.0  0.3378060758113861  0.4025763273239136  0.3439655303955078  1.0000
  O   O5        1.0  0.42050623893737793  0.38521653413772583  0.08976929634809494  1.0000
  O   O6        1.0  0.6358380317687988  0.6087570786476135  0.38892775774002075  1.0000
  O   O7        1.0  0.6327717900276184  0.6039712429046631  0.7911039590835571  1.0000
  O   O8        1.0  0.5380356311798096  0.10173177719116212  0.7943169474601746  1.0000
  O   O9        1.0  0.04147394746541977  0.19132594764232638  0.296118825674057  1.0000
  O   O10       1.0  0.24441197514533997  0.421877920627594  0.5899137258529663  1.0000
  Rh  Rh1       1.0  0.14404582977294922  0.6933881640434266  0.8842583298683165  1.0000
  O   O11       1.0  0.03987165540456772  0.1944907009601593  0.8883145451545714  1.0000
