data_image0
_chemical_formula_structural       Fe4O6
_chemical_formula_sum              "Fe4 O6"
_cell_length_a       5.65802663036221
_cell_length_b       5.168643851844934
_cell_length_c       5.145358085632324
_cell_angle_alpha    61.16093614287859
_cell_angle_beta     65.4680853965508
_cell_angle_gamma    65.54038905012567

_space_group_name_H-M_alt    "P 1"
_space_group_IT_number       1

loop_
  _space_group_symop_operation_xyz
  'x, y, z'

loop_
  _atom_site_type_symbol
  _atom_site_label
  _atom_site_symmetry_multiplicity
  _atom_site_fract_x
  _atom_site_fract_y
  _atom_site_fract_z
  _atom_site_occupancy
  Fe  Fe1       1.0  0.5890903472900391  0.10301554948091507  0.4867183268070221  1.0000
  Fe  Fe2       1.0  0.13746456801891327  0.9104700088500977  0.29935675859451294  1.0000
  Fe  Fe3       1.0  0.6856824755668639  0.7296895384788513  0.11482188850641259  1.0000
  Fe  Fe4       1.0  0.03548389300704001  0.28902900218963623  0.6682069897651672  1.0000
  O   O1        1.0  0.8595687747001648  0.9927657842636108  0.1083914190530777  1.0000
  O   O2        1.0  0.8608694076538086  0.7272014617919922  0.6957444548606874  1.0000
  O   O3        1.0  0.36281341314315796  0.09476401656866074  0.8899396061897278  1.0000
  O   O4        1.0  0.8668593168258667  0.31506225466728205  0.37635061144828796  1.0000
  O   O5        1.0  0.3776237666606903  0.9073940515518188  0.4684276878833771  1.0000
  O   O6        1.0  0.3790940940380096  0.5132927894592285  0.2921681106090547  1.0000
