data_image0
_chemical_formula_structural       Co2Pt
_chemical_formula_sum              "Co2 Pt1"
_cell_length_a       2.6681167686135834
_cell_length_b       2.671158931557473
_cell_length_c       5.6930646896362305
_cell_angle_alpha    103.5117759293696
_cell_angle_beta     103.51734966261903
_cell_angle_gamma    89.99808358920711

_space_group_name_H-M_alt    "P 1"
_space_group_IT_number       1

loop_
  _space_group_symop_operation_xyz
  'x, y, z'

loop_
  _atom_site_type_symbol
  _atom_site_label
  _atom_site_symmetry_multiplicity
  _atom_site_fract_x
  _atom_site_fract_y
  _atom_site_fract_z
  _atom_site_occupancy
  Co  Co1       1.0  0.9700735211372375  0.4499629735946655  0.4332459568977356  1.0000
  Co  Co2       1.0  0.3250441253185272  0.8048261404037474  0.1424053758382797  1.0000
  Pt  Pt1       1.0  0.6474134922027588  0.1272614449262619  0.7874529361724854  1.0000
