data_image0
_chemical_formula_structural       Fe4O2FeOFeO3
_chemical_formula_sum              "Fe6 O6"
_cell_length_a       5.3345955934939395
_cell_length_b       5.396191042847307
_cell_length_c       5.363564968109131
_cell_angle_alpha    81.15867030885529
_cell_angle_beta     71.18216680091476
_cell_angle_gamma    60.07089527887061

_space_group_name_H-M_alt    "P 1"
_space_group_IT_number       1

loop_
  _space_group_symop_operation_xyz
  'x, y, z'

loop_
  _atom_site_type_symbol
  _atom_site_label
  _atom_site_symmetry_multiplicity
  _atom_site_fract_x
  _atom_site_fract_y
  _atom_site_fract_z
  _atom_site_occupancy
  Fe  Fe1       1.0  0.13323695957660675  0.5707871317863464  0.30973994731903076  1.0000
  Fe  Fe2       1.0  0.2992810904979705  0.2377374917268753  0.8103050589561462  1.0000
  Fe  Fe3       1.0  0.7993375062942505  0.23814328014850614  0.3093128204345703  1.0000
  Fe  Fe4       1.0  0.466280072927475  0.9042890071868896  0.309904545545578  1.0000
  O   O1        1.0  0.7417307496070863  0.88541579246521  0.559894859790802  1.0000
  O   O2        1.0  0.19024528563022614  0.9228519797325134  0.05979932099580765  1.0000
  Fe  Fe5       1.0  0.6328113675117493  0.5708894729614258  0.809624969959259  1.0000
  O   O3        1.0  0.07468198984861374  0.2186821103096008  0.5605239868164062  1.0000
  Fe  Fe6       1.0  0.9655445218086243  0.9044684767723082  0.809453010559082  1.0000
  O   O4        1.0  0.8574612736701966  0.5903128385543822  0.059230972081422764  1.0000
  O   O5        1.0  0.523600995540619  0.25650778412818903  0.059815526008605915  1.0000
  O   O6        1.0  0.40797457098960876  0.5523790121078491  0.5598658323287964  1.0000
