data_image0
_chemical_formula_structural       OFe2O2SnOMnO2
_chemical_formula_sum              "O6 Fe2 Sn1 Mn1"
_cell_length_a       5.18453804939901
_cell_length_b       5.293423426246533
_cell_length_c       5.561428070068359
_cell_angle_alpha    62.324368723830645
_cell_angle_beta     89.92098404679636
_cell_angle_gamma    61.66094730846822

_space_group_name_H-M_alt    "P 1"
_space_group_IT_number       1

loop_
  _space_group_symop_operation_xyz
  'x, y, z'

loop_
  _atom_site_type_symbol
  _atom_site_label
  _atom_site_symmetry_multiplicity
  _atom_site_fract_x
  _atom_site_fract_y
  _atom_site_fract_z
  _atom_site_occupancy
  O   O1        1.0  0.5509040355682373  0.4081437289714813  0.5450279712677002  1.0000
  Fe  Fe1       1.0  0.3421329855918884  0.522750973701477  0.8572503924369812  1.0000
  Fe  Fe2       1.0  0.6248256564140321  0.9534405469894408  0.7194457650184631  1.0000
  O   O2        1.0  0.9237345457077026  0.7598074674606323  0.523174524307251  1.0000
  O   O3        1.0  0.02363290265202518  0.7658360004425049  0.03567498177289963  1.0000
  Sn  Sn1       1.0  0.8339745998382568  0.5347062945365906  0.33799269795417786  1.0000
  O   O4        1.0  0.735092282295227  0.46261823177337646  0.017397999763488808  1.0000
  Mn  Mn1       1.0  0.12887583673000336  0.9477077722549438  0.23105777800083166  1.0000
  O   O5        1.0  0.2364203929901123  0.06125509738922119  0.5096161365509033  1.0000
  O   O6        1.0  0.4230394661426544  0.027549615129828453  0.037166886031627655  1.0000
