data_image0
_chemical_formula_structural       MnFeO2MnO2FeO2
_chemical_formula_sum              "Mn2 Fe2 O6"
_cell_length_a       5.014815073112813
_cell_length_b       5.137384438819444
_cell_length_c       5.490677356719971
_cell_angle_alpha    61.0726306365608
_cell_angle_beta     65.31739059408328
_cell_angle_gamma    62.82346297212909

_space_group_name_H-M_alt    "P 1"
_space_group_IT_number       1

loop_
  _space_group_symop_operation_xyz
  'x, y, z'

loop_
  _atom_site_type_symbol
  _atom_site_label
  _atom_site_symmetry_multiplicity
  _atom_site_fract_x
  _atom_site_fract_y
  _atom_site_fract_z
  _atom_site_occupancy
  Mn  Mn1       1.0  0.5577082633972168  0.2313208281993866  0.8081085085868835  1.0000
  Fe  Fe1       1.0  0.05423704907298088  0.723325252532959  0.3243121802806854  1.0000
  O   O1        1.0  0.4630550146102905  0.8333753943443298  0.005597387440502644  1.0000
  O   O2        1.0  0.9879556894302368  0.016428956761956215  0.4919643700122833  1.0000
  Mn  Mn2       1.0  0.2598243355751037  0.9214581847190857  0.7130380868911743  1.0000
  O   O3        1.0  0.829598605632782  0.13631793856620789  0.029159551486372868  1.0000
  O   O4        1.0  0.14421635866165164  0.5460096597671509  0.008633598685264548  1.0000
  Fe  Fe2       1.0  0.7639761567115784  0.42984628677368164  0.19686292111873618  1.0000
  O   O5        1.0  0.35444003343582153  0.32045626640319824  0.5162095427513123  1.0000
  O   O6        1.0  0.6742681264877319  0.6062702536582947  0.5135327577590942  1.0000
