data_image0
_chemical_formula_structural       GdBrGdCO7C
_chemical_formula_sum              "Gd2 Br1 C2 O7"
_cell_length_a       6.112212691111802
_cell_length_b       6.010384551762491
_cell_length_c       6.144632339477539
_cell_angle_alpha    88.5512919973671
_cell_angle_beta     68.68121922067463
_cell_angle_gamma    88.46285458239878

_space_group_name_H-M_alt    "P 1"
_space_group_IT_number       1

loop_
  _space_group_symop_operation_xyz
  'x, y, z'

loop_
  _atom_site_type_symbol
  _atom_site_label
  _atom_site_symmetry_multiplicity
  _atom_site_fract_x
  _atom_site_fract_y
  _atom_site_fract_z
  _atom_site_occupancy
  Gd  Gd1       1.0  0.04960455745458603  0.9992575049400331  0.14147913455963135  1.0000
  Br  Br1       1.0  0.23842974007129666  0.3460402190685273  0.3306252360343933  1.0000
  Gd  Gd2       1.0  0.4269353449344635  0.694430947303772  0.5183035135269165  1.0000
  C   C1        1.0  0.5468548536300659  0.1435910016298294  0.6394054293632507  1.0000
  O   O1        1.0  0.5571788549423218  0.35351786017417913  0.6500773429870607  1.0000
  O   O2        1.0  0.2382160574197769  0.845874309539795  0.32955676317214966  1.0000
  O   O3        1.0  0.782380998134613  0.6725949048995973  0.18777211010456085  1.0000
  O   O4        1.0  0.6941511034965515  0.020653191953897476  0.4721584618091583  1.0000
  O   O5        1.0  0.9189296364784241  0.3396851420402527  0.010883450508117676  1.0000
  O   O6        1.0  0.09387138485908508  0.67478746175766  0.874298095703125  1.0000
  O   O7        1.0  0.3824422359466553  0.018933879211544994  0.7855885624885559  1.0000
  C   C2        1.0  0.930048644542694  0.5497738122940063  0.020439064130187035  1.0000
