data_image0
_chemical_formula_structural       NiFeNiO2PtO4
_chemical_formula_sum              "Ni2 Fe1 O6 Pt1"
_cell_length_a       5.147247872184198
_cell_length_b       5.149799738257456
_cell_length_c       5.490081310272217
_cell_angle_alpha    62.057425850746235
_cell_angle_beta     62.00840375810649
_cell_angle_gamma    59.99095448267561

_space_group_name_H-M_alt    "P 1"
_space_group_IT_number       1

loop_
  _space_group_symop_operation_xyz
  'x, y, z'

loop_
  _atom_site_type_symbol
  _atom_site_label
  _atom_site_symmetry_multiplicity
  _atom_site_fract_x
  _atom_site_fract_y
  _atom_site_fract_z
  _atom_site_occupancy
  Ni  Ni1       1.0  0.6340713500976562  0.2849594056606293  0.42599007487297064  1.0000
  Fe  Fe1       1.0  0.4316386878490448  0.08195025473833084  0.03377631679177281  1.0000
  Ni  Ni2       1.0  0.14190424978733068  0.7912771105766295  0.9048511385917665  1.0000
  O   O1        1.0  0.7260538935661315  0.9848625063896179  0.22619313001632693  1.0000
  O   O2        1.0  0.5487204790115356  0.48286300897598267  0.7250418066978455  1.0000
  Pt  Pt1       1.0  0.9410842657089233  0.5914034247398376  0.5055577754974365  1.0000
  O   O3        1.0  0.8328198790550232  0.8728386759757996  0.7249955534934998  1.0000
  O   O4        1.0  0.22270378470420837  0.19885385036468506  0.7246614694595337  1.0000
  O   O5        1.0  0.3344251811504364  0.6923885941505431  0.2265804708003998  1.0000
  O   O6        1.0  0.042534653097391156  0.3764107227325439  0.22648569941520694  1.0000
