data_image0
_chemical_formula_structural       Mn2LiMnOFeMnO5
_chemical_formula_sum              "Mn4 Li1 O6 Fe1"
_cell_length_a       5.405738476925425
_cell_length_b       5.440292962645466
_cell_length_c       5.407141208648682
_cell_angle_alpha    80.64711730275987
_cell_angle_beta     70.88167387867395
_cell_angle_gamma    60.18919271449413

_space_group_name_H-M_alt    "P 1"
_space_group_IT_number       1

loop_
  _space_group_symop_operation_xyz
  'x, y, z'

loop_
  _atom_site_type_symbol
  _atom_site_label
  _atom_site_symmetry_multiplicity
  _atom_site_fract_x
  _atom_site_fract_y
  _atom_site_fract_z
  _atom_site_occupancy
  Mn  Mn1       1.0  0.9796358942985535  0.30977731943130493  0.23933199048042295  1.0000
  Mn  Mn2       1.0  0.4789387583732605  0.311467707157135  0.7395275235176086  1.0000
  Li  Li1       1.0  0.15802860260009757  0.9537699818611146  0.7391535639762878  1.0000
  Mn  Mn3       1.0  0.6440863609313964  0.9811332821846009  0.2391925603151321  1.0000
  O   O1        1.0  0.2318563312292099  0.3391163945198059  0.47683906555175776  1.0000
  Fe  Fe1       1.0  0.3079625368118286  0.6528345346450806  0.23953881859779355  1.0000
  Mn  Mn4       1.0  0.8109197616577148  0.6463637351989746  0.7394556999206543  1.0000
  O   O2        1.0  0.9123226404190063  0.9648512601852416  0.4825072288513183  1.0000
  O   O3        1.0  0.39117446541786194  0.9654260277748108  0.9961518645286559  1.0000
  O   O4        1.0  0.07285623252391815  0.6468855142593384  0.0020532214548438787  1.0000
  O   O5        1.0  0.6979878544807435  0.3391042947769165  0.0019125938415526932  1.0000
  O   O6        1.0  0.5490115880966187  0.6472432017326355  0.4767590463161468  1.0000
