data_image0
_chemical_formula_structural       V2OVO5
_chemical_formula_sum              "V3 O6"
_cell_length_a       4.41617488608843
_cell_length_b       4.810768092013665
_cell_length_c       4.968153476715088
_cell_angle_alpha    118.69756839742078
_cell_angle_beta     90.30473822592546
_cell_angle_gamma    89.39444474942475

_space_group_name_H-M_alt    "P 1"
_space_group_IT_number       1

loop_
  _space_group_symop_operation_xyz
  'x, y, z'

loop_
  _atom_site_type_symbol
  _atom_site_label
  _atom_site_symmetry_multiplicity
  _atom_site_fract_x
  _atom_site_fract_y
  _atom_site_fract_z
  _atom_site_occupancy
  V   V1        1.0  0.25694698095321655  0.10918311029672621  0.5214697122573853  1.0000
  V   V2        1.0  0.7555775046348572  0.7750206589698792  0.850929319858551  1.0000
  O   O1        1.0  0.5020992755889893  0.4513496160507202  0.8498245477676392  1.0000
  V   V3        1.0  0.25689563155174255  0.43958526849746704  0.18094554543495178  1.0000
  O   O2        1.0  0.010331988334655762  0.09784699231386185  0.8513768315315247  1.0000
  O   O3        1.0  0.01661752723157406  0.43456289172172546  0.5210133790969849  1.0000
  O   O4        1.0  0.4947418272495269  0.7837769985198975  0.5182191729545593  1.0000
  O   O5        1.0  0.018905600532889366  0.7646123170852661  0.18264926970005035  1.0000
  O   O6        1.0  0.49536636471748346  0.11480496823787688  0.18053343892097473  1.0000
