data_image0
_chemical_formula_structural       NiFeNiH2NiH2
_chemical_formula_sum              "Ni3 Fe1 H4"
_cell_length_a       3.7399860760166423
_cell_length_b       3.7412140657692388
_cell_length_c       3.7385573387145996
_cell_angle_alpha    90.00711273172874
_cell_angle_beta     89.9847097097348
_cell_angle_gamma    89.9953169947186

_space_group_name_H-M_alt    "P 1"
_space_group_IT_number       1

loop_
  _space_group_symop_operation_xyz
  'x, y, z'

loop_
  _atom_site_type_symbol
  _atom_site_label
  _atom_site_symmetry_multiplicity
  _atom_site_fract_x
  _atom_site_fract_y
  _atom_site_fract_z
  _atom_site_occupancy
  Ni  Ni1       1.0  0.4371380805969239  0.6296188831329346  0.25576359033584595  1.0000
  Fe  Fe1       1.0  0.4369367361068726  0.12971575558185577  0.7557456493377687  1.0000
  Ni  Ni2       1.0  0.9371044039726258  0.6295581459999084  0.75602924823761  1.0000
  H   H1        1.0  0.9373416304588319  0.6298015713691711  0.2560513913631439  1.0000
  H   H2        1.0  0.43741449713706976  0.1298334002494812  0.25548869371414185  1.0000
  Ni  Ni3       1.0  0.9366757273674012  0.12968505918979645  0.256011426448822  1.0000
  H   H3        1.0  0.9379338026046754  0.12965057790279388  0.7557685971260072  1.0000
  H   H4        1.0  0.437555879354477  0.6298149228096008  0.7554550766944886  1.0000
