data_image0
_chemical_formula_structural       Gd3NiFeNiGdFeNi4
_chemical_formula_sum              "Gd4 Ni6 Fe2"
_cell_length_a       5.127240910302512
_cell_length_b       5.127289478916256
_cell_length_c       8.131092071533203
_cell_angle_alpha    89.98466189863521
_cell_angle_beta     89.982018615784
_cell_angle_gamma    120.04101158177284

_space_group_name_H-M_alt    "P 1"
_space_group_IT_number       1

loop_
  _space_group_symop_operation_xyz
  'x, y, z'

loop_
  _atom_site_type_symbol
  _atom_site_label
  _atom_site_symmetry_multiplicity
  _atom_site_fract_x
  _atom_site_fract_y
  _atom_site_fract_z
  _atom_site_occupancy
  Gd  Gd1       1.0  0.5864378809928894  0.01678246632218361  0.03894704580307007  1.0000
  Gd  Gd2       1.0  0.5866051912307739  0.016488727182149887  0.4182400405406952  1.0000
  Gd  Gd3       1.0  0.9193753600120544  0.6838226914405822  0.91841721534729  1.0000
  Ni  Ni1       1.0  0.41726380586624146  0.18620285391807556  0.728857696056366  1.0000
  Fe  Fe1       1.0  0.25295981764793396  0.35012370347976685  0.9786558747291565  1.0000
  Ni  Ni2       1.0  0.08898399770259857  0.5142454504966736  0.2285935878753662  1.0000
  Gd  Gd4       1.0  0.9197646975517273  0.683840811252594  0.5389816761016846  1.0000
  Fe  Fe2       1.0  0.2530261278152466  0.3502831757068634  0.4785868227481842  1.0000
  Ni  Ni3       1.0  0.41718366742134094  0.6784740090370178  0.7287150621414185  1.0000
  Ni  Ni4       1.0  0.5810714364051819  0.5144270658493042  0.22858156263828278  1.0000
  Ni  Ni5       1.0  0.08899004012346268  0.022304480895400047  0.2285197377204895  1.0000
  Ni  Ni6       1.0  0.925182044506073  0.1860143095254898  0.7288541197776794  1.0000
