data_image0
_chemical_formula_structural       CoMnCoMnCoMn2Co4
_chemical_formula_sum              "Co7 Mn4"
_cell_length_a       3.4839930776872086
_cell_length_b       5.458169962127662
_cell_length_c       6.483735084533691
_cell_angle_alpha    105.13881565788479
_cell_angle_beta     105.58160984807526
_cell_angle_gamma    89.9900782997221

_space_group_name_H-M_alt    "P 1"
_space_group_IT_number       1

loop_
  _space_group_symop_operation_xyz
  'x, y, z'

loop_
  _atom_site_type_symbol
  _atom_site_label
  _atom_site_symmetry_multiplicity
  _atom_site_fract_x
  _atom_site_fract_y
  _atom_site_fract_z
  _atom_site_occupancy
  Co  Co1       1.0  0.244646355509758  0.3850799798965454  0.5918216109275818  1.0000
  Mn  Mn1       1.0  0.6084036827087402  0.20592792332172394  0.32104015350341797  1.0000
  Co  Co2       1.0  0.33493831753730774  0.8423287868499757  0.7722679376602173  1.0000
  Mn  Mn2       1.0  0.5182436108589172  0.7492219805717468  0.13838104903697968  1.0000
  Co  Co3       1.0  0.9724895358085632  0.022019853815436367  0.04828486219048499  1.0000
  Mn  Mn3       1.0  0.4271944761276245  0.294217973947525  0.9559515118598938  1.0000
  Mn  Mn4       1.0  0.8813436627388  0.5712206959724426  0.8651286363601685  1.0000
  Co  Co4       1.0  0.06332551687955858  0.47822907567024237  0.22940661013126373  1.0000
  Co  Co5       1.0  0.7908563613891602  0.11771783977746965  0.6852783560752869  1.0000
  Co  Co6       1.0  0.15433013439178467  0.9314759969711305  0.41012391448020935  1.0000
  Co  Co7       1.0  0.7006683945655823  0.6579118371009828  0.5038363933563232  1.0000
