data_image0
_chemical_formula_structural       FeMnFeO2MnOMnFeO5FeO
_chemical_formula_sum              "Fe4 Mn3 O9"
_cell_length_a       3.062960223647958
_cell_length_b       7.443265714364527
_cell_length_c       8.464075088500977
_cell_angle_alpha    86.88986931503541
_cell_angle_beta     79.56910813246253
_cell_angle_gamma    78.19634262841834

_space_group_name_H-M_alt    "P 1"
_space_group_IT_number       1

loop_
  _space_group_symop_operation_xyz
  'x, y, z'

loop_
  _atom_site_type_symbol
  _atom_site_label
  _atom_site_symmetry_multiplicity
  _atom_site_fract_x
  _atom_site_fract_y
  _atom_site_fract_z
  _atom_site_occupancy
  Fe  Fe1       1.0  0.8996187448501587  0.8428068161010742  0.3614877164363861  1.0000
  Mn  Mn1       1.0  0.3833480775356293  0.42139849066734314  0.8142012357711792  1.0000
  Fe  Fe2       1.0  0.360016793012619  0.17594027519226074  0.10330189019441605  1.0000
  O   O1        1.0  0.17098401486873627  0.3540929853916168  0.307014137506485  1.0000
  O   O2        1.0  0.5315384268760681  0.04945564270019531  0.88899827003479  1.0000
  Mn  Mn2       1.0  0.6395841836929321  0.7677386403083801  0.9556769728660583  1.0000
  O   O3        1.0  0.4559391140937805  0.6925256848335266  0.3978406488895416  1.0000
  Mn  Mn3       1.0  0.626643717288971  0.2700170576572418  0.48050692677497864  1.0000
  Fe  Fe3       1.0  0.6339449882507323  0.5201496481895447  0.21449461579322815  1.0000
  O   O4        1.0  0.8716211318969727  0.047873128205537796  0.21052022278308868  1.0000
  O   O5        1.0  0.09529527276754379  0.6872382164001465  0.12542083859443665  1.0000
  O   O6        1.0  0.019413134083151817  0.29845985770225525  0.6657810211181641  1.0000
  O   O7        1.0  0.81276535987854  0.3635559678077698  0.012689292430877686  1.0000
  O   O8        1.0  0.23698908090591428  0.728245735168457  0.7989668846130371  1.0000
  Fe  Fe4       1.0  0.13546916842460632  0.008937768638134004  0.7214004397392273  1.0000
  O   O9        1.0  0.7267536520957947  0.9886282682418823  0.5599015355110168  1.0000
