data_image0
_chemical_formula_structural       Fe5HFeN2H
_chemical_formula_sum              "Fe6 H2 N2"
_cell_length_a       4.727292950540836
_cell_length_b       4.7325309751023354
_cell_length_c       5.150271415710449
_cell_angle_alpha    62.59182455991945
_cell_angle_beta     62.62130399471276
_cell_angle_gamma    59.87797168606326

_space_group_name_H-M_alt    "P 1"
_space_group_IT_number       1

loop_
  _space_group_symop_operation_xyz
  'x, y, z'

loop_
  _atom_site_type_symbol
  _atom_site_label
  _atom_site_symmetry_multiplicity
  _atom_site_fract_x
  _atom_site_fract_y
  _atom_site_fract_z
  _atom_site_occupancy
  Fe  Fe1       1.0  0.15978953242301935  0.7756435275077821  0.24994654953479767  1.0000
  Fe  Fe2       1.0  0.8242741823196412  0.4405539333820343  0.2506211996078491  1.0000
  Fe  Fe3       1.0  0.49439820647239685  0.10541511327028276  0.2500231564044953  1.0000
  Fe  Fe4       1.0  0.9933874011039734  0.9407762289047242  0.745957016944885  1.0000
  Fe  Fe5       1.0  0.658486545085907  0.6099754571914673  0.7455704808235168  1.0000
  H   H1        1.0  0.7321874499320984  0.013628036715090277  0.5279754400253295  1.0000
  Fe  Fe6       1.0  0.3286292552947998  0.27513903379440313  0.7463847994804382  1.0000
  N   N1        1.0  0.2378603816032409  0.5196394920349122  0.01400781329721208  1.0000
  N   N2        1.0  0.9152662158012391  0.19587551057338717  0.9821875691413879  1.0000
  H   H2        1.0  0.42037728428840626  0.7022284865379335  0.46822282671928406  1.0000
