data_image0
_chemical_formula_structural       YO2YOFe2OFe2O4
_chemical_formula_sum              "Y2 O8 Fe4"
_cell_length_a       5.515369427942862
_cell_length_b       5.518466409539229
_cell_length_c       6.848630905151367
_cell_angle_alpha    90.02218695890767
_cell_angle_beta     90.00388205192863
_cell_angle_gamma    113.22025515429145

_space_group_name_H-M_alt    "P 1"
_space_group_IT_number       1

loop_
  _space_group_symop_operation_xyz
  'x, y, z'

loop_
  _atom_site_type_symbol
  _atom_site_label
  _atom_site_symmetry_multiplicity
  _atom_site_fract_x
  _atom_site_fract_y
  _atom_site_fract_z
  _atom_site_occupancy
  Y   Y1        1.0  0.7171547412872314  0.7282077670097351  0.9123941659927369  1.0000
  O   O1        1.0  0.9672895669937134  0.9929043054580688  0.16300252079963684  1.0000
  O   O2        1.0  0.4701657295227051  0.9756187200546265  0.9003336429595948  1.0000
  Y   Y2        1.0  0.7174710035324097  0.7279826402664185  0.4129998683929444  1.0000
  O   O3        1.0  0.46795397996902466  0.4633163213729859  0.6629524827003479  1.0000
  Fe  Fe1       1.0  0.05162690579891205  0.393565833568573  0.662134051322937  1.0000
  Fe  Fe2       1.0  0.3821144104003906  0.06397697329521179  0.16247211396694183  1.0000
  O   O4        1.0  0.9651184678077698  0.48099207878112793  0.3987188041210175  1.0000
  Fe  Fe3       1.0  0.36405912041664124  0.08226875960826874  0.6630694270133972  1.0000
  Fe  Fe4       1.0  0.07087717950344086  0.3742845356464386  0.16295500099658966  1.0000
  O   O5        1.0  0.9651204943656921  0.48132702708244324  0.9263404607772828  1.0000
  O   O6        1.0  0.9820265769958496  0.9777977466583251  0.6628779768943787  1.0000
  O   O7        1.0  0.47021353244781494  0.9751092791557312  0.42610850930213934  1.0000
  O   O8        1.0  0.45272403955459595  0.4782407879829407  0.16303743422031403  1.0000
