data_image0
_chemical_formula_structural       Fe4Co4
_chemical_formula_sum              "Fe4 Co4"
_cell_length_a       2.8561349995696195
_cell_length_b       4.012037816490412
_cell_length_c       8.375656127929688
_cell_angle_alpha    103.84491175074604
_cell_angle_beta     99.79275877164629
_cell_angle_gamma    90.0203224954159

_space_group_name_H-M_alt    "P 1"
_space_group_IT_number       1

loop_
  _space_group_symop_operation_xyz
  'x, y, z'

loop_
  _atom_site_type_symbol
  _atom_site_label
  _atom_site_symmetry_multiplicity
  _atom_site_fract_x
  _atom_site_fract_y
  _atom_site_fract_z
  _atom_site_occupancy
  Fe  Fe1       1.0  0.5931252241134644  0.053057022392749786  0.3234337568283081  1.0000
  Fe  Fe2       1.0  0.46739810705184937  0.4271682500839234  0.07177659124135971  1.0000
  Fe  Fe3       1.0  0.3417717218399048  0.8010600805282594  0.8199940919876099  1.0000
  Fe  Fe4       1.0  0.967274010181427  0.9267598986625672  0.0716192424297333  1.0000
  Co  Co1       1.0  0.7199463248252869  0.6794930100440979  0.576856791973114  1.0000
  Co  Co2       1.0  0.21470534801483154  0.1748725920915604  0.5668574571609497  1.0000
  Co  Co3       1.0  0.8415818810462952  0.30143770575523376  0.8203250169754028  1.0000
  Co  Co4       1.0  0.09315139800310135  0.552913248538971  0.3233214318752289  1.0000
