data_image0
_chemical_formula_structural       N2CFe3N2FeN2
_chemical_formula_sum              "N6 C1 Fe4"
_cell_length_a       2.7900159742344504
_cell_length_b       5.2957070764110075
_cell_length_c       7.491964340209961
_cell_angle_alpha    109.493750029625
_cell_angle_beta     90.02552008904499
_cell_angle_gamma    89.84743656909674

_space_group_name_H-M_alt    "P 1"
_space_group_IT_number       1

loop_
  _space_group_symop_operation_xyz
  'x, y, z'

loop_
  _atom_site_type_symbol
  _atom_site_label
  _atom_site_symmetry_multiplicity
  _atom_site_fract_x
  _atom_site_fract_y
  _atom_site_fract_z
  _atom_site_occupancy
  N   N1        1.0  0.7112160325050354  0.3137547969818115  0.52933669090271  1.0000
  N   N2        1.0  0.7118377685546875  0.2855359613895417  0.16446490585803986  1.0000
  C   C1        1.0  0.7112882137298584  0.40376341342926025  0.7070491909980774  1.0000
  Fe  Fe1       1.0  0.21128448843955994  0.13297846913337708  0.32369816303253174  1.0000
  Fe  Fe2       1.0  0.7116128206253052  0.5854936838150024  0.3932066261768341  1.0000
  Fe  Fe3       1.0  0.21121063828468323  0.5287793874740602  0.08972886204719543  1.0000
  N   N3        1.0  0.7116209864616394  0.825705111026764  0.24951466917991638  1.0000
  N   N4        1.0  0.7116346955299377  0.8446415066719056  0.6207119822502136  1.0000
  Fe  Fe4       1.0  0.7113516330718994  0.9124954938888551  0.015186703763902187  1.0000
  N   N5        1.0  0.7114086151123047  0.9453682303428651  0.7832299470901489  1.0000
  N   N6        1.0  0.7112530469894409  0.5152434706687927  0.881035566329956  1.0000
