data_image0
_chemical_formula_structural       Co2HgCo3HgNCo3Hg2CoN2Co3N
_chemical_formula_sum              "Co12 Hg4 N4"
_cell_length_a       6.254765208109196
_cell_length_b       6.764493713571741
_cell_length_c       6.76379919052124
_cell_angle_alpha    68.13806889766316
_cell_angle_beta     68.08286696111699
_cell_angle_gamma    68.06825793082939

_space_group_name_H-M_alt    "P 1"
_space_group_IT_number       1

loop_
  _space_group_symop_operation_xyz
  'x, y, z'

loop_
  _atom_site_type_symbol
  _atom_site_label
  _atom_site_symmetry_multiplicity
  _atom_site_fract_x
  _atom_site_fract_y
  _atom_site_fract_z
  _atom_site_occupancy
  Co  Co1       1.0  0.7619128823280334  0.5625316500663757  0.5277841687202454  1.0000
  Co  Co2       1.0  0.2616292834281922  0.7039057612419127  0.6689306497573851  1.0000
  Hg  Hg1       1.0  0.5145570039749146  0.7494423985481262  0.21460942924022672  1.0000
  Co  Co3       1.0  0.2619583308696747  0.2043367177248001  0.1685259789228439  1.0000
  Co  Co4       1.0  0.7618759870529175  0.06256604194641112  0.027727130800485607  1.0000
  Co  Co5       1.0  0.5113253593444824  0.5001710057258605  0.9652270674705504  1.0000
  Hg  Hg2       1.0  0.008976591750979462  0.8761619329452514  0.3409599661827087  1.0000
  N   N1        1.0  0.9974844455718994  0.37872037291526794  0.3442327976226806  1.0000
  Co  Co6       1.0  0.2623737156391144  0.42169082164764404  0.3862882852554321  1.0000
  Co  Co7       1.0  0.5114612579345703  0.0003032684326171875  0.4656664431095123  1.0000
  Co  Co8       1.0  0.26144817471504217  0.921660542488098  0.886493682861328  1.0000
  Hg  Hg3       1.0  0.5145124793052673  0.24882438778877258  0.7145519852638244  1.0000
  Hg  Hg4       1.0  0.009143128059804459  0.3762440979480743  0.8410829305648803  1.0000
  Co  Co9       1.0  0.7618395686149597  0.8125115633010864  0.7777376770973204  1.0000
  N   N2        1.0  0.9971234202384949  0.8785704970359801  0.8438307046890258  1.0000
  N   N3        1.0  0.526775062084198  0.24687460064887998  0.21194997429847715  1.0000
  Co  Co10      1.0  0.011945712380111212  0.12485982477664948  0.5898152589797974  1.0000
  Co  Co11      1.0  0.7616409063339233  0.31279411911964417  0.27778810262680054  1.0000
  Co  Co12      1.0  0.012381352484226227  0.6247501969337463  0.08998454362154006  1.0000
  N   N4        1.0  0.5262566208839417  0.7467707395553588  0.7109772562980651  1.0000
