data_image0
_chemical_formula_structural       Fe2Zr2Fe8
_chemical_formula_sum              "Fe10 Zr2"
_cell_length_a       4.851963487938128
_cell_length_b       4.851983524186569
_cell_length_c       7.893492698669434
_cell_angle_alpha    89.96451284248785
_cell_angle_beta     89.97546846300864
_cell_angle_gamma    120.09572191550528

_space_group_name_H-M_alt    "P 1"
_space_group_IT_number       1

loop_
  _space_group_symop_operation_xyz
  'x, y, z'

loop_
  _atom_site_type_symbol
  _atom_site_label
  _atom_site_symmetry_multiplicity
  _atom_site_fract_x
  _atom_site_fract_y
  _atom_site_fract_z
  _atom_site_occupancy
  Fe  Fe1       1.0  0.8849049806594849  0.8198978900909424  0.05338665097951889  1.0000
  Fe  Fe2       1.0  0.8849220275878906  0.8205075263977051  0.5533441305160522  1.0000
  Zr  Zr1       1.0  0.5518115162849426  0.15352199971675873  0.05333402752876282  1.0000
  Zr  Zr2       1.0  0.5514208674430847  0.15365207195281982  0.5532611608505249  1.0000
  Fe  Fe3       1.0  0.2178337424993515  0.48704615235328674  0.5535547137260437  1.0000
  Fe  Fe4       1.0  0.051367517560720444  0.6535009145736694  0.3039316236972809  1.0000
  Fe  Fe5       1.0  0.05202757567167282  0.6537750959396362  0.8032755255699158  1.0000
  Fe  Fe6       1.0  0.5517961382865906  0.6539060473442078  0.8031144142150879  1.0000
  Fe  Fe7       1.0  0.21874256432056427  0.4872246980667114  0.05362698435783386  1.0000
  Fe  Fe8       1.0  0.05191401019692421  0.15372949838638306  0.8030186891555786  1.0000
  Fe  Fe9       1.0  0.5514759421348572  0.653689980506897  0.303823858499527  1.0000
  Fe  Fe10      1.0  0.051735732704401016  0.15357190370559692  0.30401068925857544  1.0000
