data_image0
_chemical_formula_structural       FeCoNiFe
_chemical_formula_sum              "Fe2 Co1 Ni1"
_cell_length_a       3.6504027960872545
_cell_length_b       3.65075360965937
_cell_length_c       4.252275466918945
_cell_angle_alpha    115.48810091368327
_cell_angle_beta     115.45052326371267
_cell_angle_gamma    90.0700458061345

_space_group_name_H-M_alt    "P 1"
_space_group_IT_number       1

loop_
  _space_group_symop_operation_xyz
  'x, y, z'

loop_
  _atom_site_type_symbol
  _atom_site_label
  _atom_site_symmetry_multiplicity
  _atom_site_fract_x
  _atom_site_fract_y
  _atom_site_fract_z
  _atom_site_occupancy
  Fe  Fe1       1.0  0.015504850074648854  0.04176433011889457  0.9282686114311218  1.0000
  Co  Co1       1.0  0.765499472618103  0.29138103127479553  0.4285868108272552  1.0000
  Ni  Ni1       1.0  0.26564317941665644  0.7918092012405394  0.42856213450431824  1.0000
  Fe  Fe2       1.0  0.5157175660133362  0.5414332151412963  0.9285885691642761  1.0000
