data_image0
_chemical_formula_structural       Mn2MgOMgO3MnO3Mn3O
_chemical_formula_sum              "Mn6 Mg2 O8"
_cell_length_a       4.447449559643348
_cell_length_b       4.449511769743515
_cell_length_c       9.392568588256836
_cell_angle_alpha    103.64187673427907
_cell_angle_beta     103.64433105572849
_cell_angle_gamma    89.94788160277784

_space_group_name_H-M_alt    "P 1"
_space_group_IT_number       1

loop_
  _space_group_symop_operation_xyz
  'x, y, z'

loop_
  _atom_site_type_symbol
  _atom_site_label
  _atom_site_symmetry_multiplicity
  _atom_site_fract_x
  _atom_site_fract_y
  _atom_site_fract_z
  _atom_site_occupancy
  Mn  Mn1       1.0  0.20386801660060883  0.9909066557884216  0.4819948375225067  1.0000
  Mn  Mn2       1.0  0.45574846863746643  0.2424087077379227  0.9849491715431213  1.0000
  Mg  Mg1       1.0  0.7047458291053772  0.49199116230010986  0.48434707522392273  1.0000
  O   O1        1.0  0.07557740062475204  0.8625436425209045  0.2254289835691452  1.0000
  Mg  Mg2       1.0  0.954979419708252  0.7414905428886414  0.9828408360481262  1.0000
  O   O2        1.0  0.8297058939933777  0.6167316436767578  0.7333955764770508  1.0000
  O   O3        1.0  0.5841634273529053  0.3713187575340271  0.24242368340492249  1.0000
  O   O4        1.0  0.20482344925403595  0.492118388414383  0.4839496612548828  1.0000
  Mn  Mn3       1.0  0.5797306895256042  0.8669358491897583  0.2335488349199295  1.0000
  O   O5        1.0  0.3297298550605774  0.11633263528347015  0.7333564162254333  1.0000
  O   O6        1.0  0.9554857611656189  0.24191308021545413  0.984438955783844  1.0000
  O   O7        1.0  0.4549162983894348  0.7418308258056641  0.9835538864135742  1.0000
  Mn  Mn4       1.0  0.07963210344314575  0.3666989803314209  0.23349978029727936  1.0000
  Mn  Mn5       1.0  0.329710453748703  0.6167336106300355  0.7334514856338501  1.0000
  Mn  Mn6       1.0  0.8299403786659241  0.11666150391101839  0.7336298823356628  1.0000
  O   O8        1.0  0.7044349908828735  0.9912193417549133  0.48255425691604614  1.0000
