data_image0
_chemical_formula_structural       NaMn5SMnS5Na
_chemical_formula_sum              "Na2 Mn6 S6"
_cell_length_a       3.868411391686166
_cell_length_b       7.949206709828432
_cell_length_c       9.8638334274292
_cell_angle_alpha    97.90792061891582
_cell_angle_beta     89.98770133390772
_cell_angle_gamma    104.09396131774955

_space_group_name_H-M_alt    "P 1"
_space_group_IT_number       1

loop_
  _space_group_symop_operation_xyz
  'x, y, z'

loop_
  _atom_site_type_symbol
  _atom_site_label
  _atom_site_symmetry_multiplicity
  _atom_site_fract_x
  _atom_site_fract_y
  _atom_site_fract_z
  _atom_site_occupancy
  Na  Na1       1.0  0.5295348763465881  0.5748360753059387  0.6310425400733948  1.0000
  Mn  Mn1       1.0  0.8453778624534607  0.208636149764061  0.5350202918052673  1.0000
  Mn  Mn2       1.0  0.09663783013820648  0.7084178924560547  0.31058409810066223  1.0000
  Mn  Mn3       1.0  0.20609566569328314  0.9287216067314149  0.5997856855392456  1.0000
  Mn  Mn4       1.0  0.7255609035491943  0.9659964442253114  0.2127722203731537  1.0000
  Mn  Mn5       1.0  0.12168387323617941  0.757467806339264  0.010437206365168107  1.0000
  S   S1        1.0  0.5619818568229675  0.638990581035614  0.12278512120246887  1.0000
  Mn  Mn6       1.0  0.4251096546649933  0.36591610312461853  0.2393639236688614  1.0000
  S   S2        1.0  0.2801853120326996  0.07664154469966888  0.10986976325511932  1.0000
  S   S3        1.0  0.12683726847171783  0.7684703469276428  0.7808911204338074  1.0000
  S   S4        1.0  0.6856702566146851  0.8870243430137635  0.44520190358161926  1.0000
  S   S5        1.0  0.3579476475715637  0.23378741741180423  0.686919629573822  1.0000
  S   S6        1.0  0.9551146626472473  0.42659455537796026  0.3873806595802307  1.0000
  Na  Na2       1.0  0.7802839279174805  0.07613843679428102  0.8737179040908813  1.0000
