data_image0
_chemical_formula_structural       Mn2OMnOMnOMn2O2MnFMnO3F
_chemical_formula_sum              "Mn8 O8 F2"
_cell_length_a       3.7013355037841964
_cell_length_b       8.691720451706004
_cell_length_c       8.482318878173828
_cell_angle_alpha    104.60763273396351
_cell_angle_beta     89.97647250295525
_cell_angle_gamma    102.30231324483277

_space_group_name_H-M_alt    "P 1"
_space_group_IT_number       1

loop_
  _space_group_symop_operation_xyz
  'x, y, z'

loop_
  _atom_site_type_symbol
  _atom_site_label
  _atom_site_symmetry_multiplicity
  _atom_site_fract_x
  _atom_site_fract_y
  _atom_site_fract_z
  _atom_site_occupancy
  Mn  Mn1       1.0  0.7443346977233886  0.8254491686820984  0.7919622659683228  1.0000
  Mn  Mn2       1.0  0.4350034892559051  0.20037831366062162  0.36240747570991516  1.0000
  O   O1        1.0  0.7005159854888915  0.7384341955184937  0.002913832664489746  1.0000
  Mn  Mn3       1.0  0.4399572610855102  0.21168816089630127  0.8833203315734863  1.0000
  O   O2        1.0  0.30904427170753473  0.9560332298278809  0.7853080630302429  1.0000
  Mn  Mn4       1.0  0.011757907457649706  0.35529497265815735  0.16937465965747833  1.0000
  O   O3        1.0  0.010470131412148474  0.3521910011768341  0.9082203507423401  1.0000
  Mn  Mn5       1.0  0.7407109141349791  0.8190780878067017  0.25882193446159363  1.0000
  Mn  Mn6       1.0  0.14200080931186676  0.6205739378929138  0.9709303379058838  1.0000
  O   O4        1.0  0.442228615283966  0.21621921658515927  0.6148724555969238  1.0000
  O   O5        1.0  0.7593248486518859  0.8557132482528687  0.5333325862884521  1.0000
  Mn  Mn7       1.0  0.30275291204452515  0.9431471824645996  0.5556300282478333  1.0000
  F   F1        1.0  0.13464054465293884  0.6049937009811401  0.7106950283050537  1.0000
  Mn  Mn8       1.0  0.005243797786533832  0.34197327494621277  0.6492399573326111  1.0000
  O   O6        1.0  0.9746229648590087  0.2809800803661346  0.391250878572464  1.0000
  O   O7        1.0  0.30670407414436335  0.9510022401809692  0.33001658320426946  1.0000
  O   O8        1.0  0.45643082261085505  0.24497677385807037  0.1413464993238449  1.0000
  F   F2        1.0  0.13973909616470337  0.6151717901229858  0.23083749413490295  1.0000
