data_image0
_chemical_formula_structural       Fe6O2FeO5FeO2F
_chemical_formula_sum              "Fe8 O9 F1"
_cell_length_a       5.447279173237755
_cell_length_b       6.186737439389025
_cell_length_c       6.752760887145996
_cell_angle_alpha    77.10579339730015
_cell_angle_beta     74.8321741041674
_cell_angle_gamma    71.83814673599088

_space_group_name_H-M_alt    "P 1"
_space_group_IT_number       1

loop_
  _space_group_symop_operation_xyz
  'x, y, z'

loop_
  _atom_site_type_symbol
  _atom_site_label
  _atom_site_symmetry_multiplicity
  _atom_site_fract_x
  _atom_site_fract_y
  _atom_site_fract_z
  _atom_site_occupancy
  Fe  Fe1       1.0  0.18846586346626285  0.97679603099823  0.026031427085399628  1.0000
  Fe  Fe2       1.0  0.17440709471702576  0.46558040380477905  0.016497362405061722  1.0000
  Fe  Fe3       1.0  0.7586861252784729  0.3750320076942444  0.8487681150436401  1.0000
  Fe  Fe4       1.0  0.740029215812683  0.8896161913871766  0.816913902759552  1.0000
  Fe  Fe5       1.0  0.5386788845062256  0.1024509072303772  0.260163277387619  1.0000
  Fe  Fe6       1.0  0.9956915378570557  0.6528651118278503  0.4504326283931732  1.0000
  O   O1        1.0  0.4724942743778229  0.14589820802211761  0.9563953876495361  1.0000
  O   O2        1.0  0.2241977006196976  0.8904004096984863  0.33450978994369507  1.0000
  Fe  Fe7       1.0  0.3714214563369751  0.7619027495384216  0.6116955876350403  1.0000
  O   O3        1.0  0.0354154035449028  0.04984330013394356  0.7429600954055785  1.0000
  O   O4        1.0  0.03672587126493454  0.6007046699523926  0.7471988201141357  1.0000
  O   O5        1.0  0.6973438858985901  0.9613062143325806  0.5211592316627502  1.0000
  O   O6        1.0  0.8826761841773987  0.2476737201213837  0.130359873175621  1.0000
  O   O7        1.0  0.7046747803688048  0.48152223229408264  0.5448058843612671  1.0000
  Fe  Fe8       1.0  0.9357607960700989  0.19443465769290924  0.43358829617500305  1.0000
  O   O8        1.0  0.4609825611114502  0.7043451070785522  0.9159156680107117  1.0000
  O   O9        1.0  0.20934347808361053  0.3782215714454651  0.32321709394454956  1.0000
  F   F1        1.0  0.884525716304779  0.7863683104515076  0.1305643767118454  1.0000
