data_image0
_chemical_formula_structural       Co3FeCo2FeCoH3
_chemical_formula_sum              "Co6 Fe2 H3"
_cell_length_a       2.527225928350839
_cell_length_b       6.403764006047859
_cell_length_c       6.057070732116699
_cell_angle_alpha    95.52203309940025
_cell_angle_beta     102.06333274925518
_cell_angle_gamma    89.96480654067933

_space_group_name_H-M_alt    "P 1"
_space_group_IT_number       1

loop_
  _space_group_symop_operation_xyz
  'x, y, z'

loop_
  _atom_site_type_symbol
  _atom_site_label
  _atom_site_symmetry_multiplicity
  _atom_site_fract_x
  _atom_site_fract_y
  _atom_site_fract_z
  _atom_site_occupancy
  Co  Co1       1.0  0.9546850919723511  0.25305342674255366  0.85689777135849  1.0000
  Co  Co2       1.0  0.03947087749838829  0.6371964812278748  0.026429377496242523  1.0000
  Co  Co3       1.0  0.6613767147064209  0.3716511130332947  0.26971468329429626  1.0000
  Fe  Fe1       1.0  0.5806867480278015  0.9934916496276855  0.10689456015825269  1.0000
  Co  Co4       1.0  0.2749722898006439  0.10803955793380737  0.49537435173988337  1.0000
  Co  Co5       1.0  0.34863409399986267  0.520940899848938  0.6444936394691467  1.0000
  Fe  Fe2       1.0  0.9021652340888977  0.8778339624404906  0.7507990598678589  1.0000
  Co  Co6       1.0  0.7170777916908264  0.7604987025260925  0.38174572587013245  1.0000
  H   H1        1.0  0.4998054802417755  0.44741711020469666  0.9473358988761902  1.0000
  H   H2        1.0  0.19309358298778534  0.5637997388839722  0.3326737582683563  1.0000
  H   H3        1.0  0.11516202986240387  0.18875242769718167  0.17825430631637573  1.0000
