data_image0
_chemical_formula_structural       Eu3SO3
_chemical_formula_sum              "Eu3 S1 O3"
_cell_length_a       3.8990369562660185
_cell_length_b       3.9010307986119424
_cell_length_c       10.75446605682373
_cell_angle_alpha    90.03517114710677
_cell_angle_beta     89.98899223949017
_cell_angle_gamma    119.98038640061128

_space_group_name_H-M_alt    "P 1"
_space_group_IT_number       1

loop_
  _space_group_symop_operation_xyz
  'x, y, z'

loop_
  _atom_site_type_symbol
  _atom_site_label
  _atom_site_symmetry_multiplicity
  _atom_site_fract_x
  _atom_site_fract_y
  _atom_site_fract_z
  _atom_site_occupancy
  Eu  Eu1       1.0  0.6286869049072266  0.1029108241200447  0.1550135612487793  1.0000
  Eu  Eu2       1.0  0.2946663200855255  0.43623653054237366  0.8712105751037598  1.0000
  Eu  Eu3       1.0  0.9613550901412964  0.7696513533592224  0.5631704330444336  1.0000
  S   S1        1.0  0.6281681656837463  0.10290981829166412  0.4111686646938324  1.0000
  O   O1        1.0  0.961782693862915  0.7706277370452881  0.13109615445137024  1.0000
  O   O2        1.0  0.6284851431846619  0.10293393582105637  0.9205905795097351  1.0000
  O   O3        1.0  0.2946319580078125  0.43634462356567383  0.6586504578590393  1.0000
