data_image0
_chemical_formula_structural       Fe2O2FeO2FeO4
_chemical_formula_sum              "Fe4 O8"
_cell_length_a       5.468070057284077
_cell_length_b       5.478998568015671
_cell_length_c       5.475028038024902
_cell_angle_alpha    107.31570735098956
_cell_angle_beta     113.82305285870214
_cell_angle_gamma    107.29226431474802

_space_group_name_H-M_alt    "P 1"
_space_group_IT_number       1

loop_
  _space_group_symop_operation_xyz
  'x, y, z'

loop_
  _atom_site_type_symbol
  _atom_site_label
  _atom_site_symmetry_multiplicity
  _atom_site_fract_x
  _atom_site_fract_y
  _atom_site_fract_z
  _atom_site_occupancy
  Fe  Fe1       1.0  0.432734876871109  0.3173157870769501  0.10275333374738697  1.0000
  Fe  Fe2       1.0  0.6826386451721191  0.8175508975982666  0.8526143431663513  1.0000
  O   O1        1.0  0.8773557543754578  0.5107505321502686  0.3532661795616151  1.0000
  O   O2        1.0  0.43313702940940857  0.6238144636154175  0.4086185097694397  1.0000
  Fe  Fe3       1.0  0.9334291219711304  0.31740465760231024  0.6031617522239686  1.0000
  O   O3        1.0  0.9339067339897156  0.6239731311798096  0.9093891978263855  1.0000
  O   O4        1.0  0.9889257550239563  0.12407494336366653  0.8534538149833679  1.0000
  Fe  Fe4       1.0  0.1832147240638733  0.8176389336585999  0.3531752228736878  1.0000
  O   O5        1.0  0.9329907298088074  0.011453231796622278  0.2968345880508424  1.0000
  O   O6        1.0  0.49011796712875366  0.12412865459918977  0.35374128818511963  1.0000
  O   O7        1.0  0.4324137568473816  0.011187369003891945  0.7961819171905518  1.0000
  O   O8        1.0  0.37653303146362305  0.5106350779533386  0.8518381714820862  1.0000
