data_image0
_chemical_formula_structural       VHFeHFeVHVFO9
_chemical_formula_sum              "V3 H3 Fe2 F1 O9"
_cell_length_a       4.043601916298933
_cell_length_b       6.568725333333361
_cell_length_c       8.139960289001465
_cell_angle_alpha    100.08270107067709
_cell_angle_beta     104.37737972416767
_cell_angle_gamma    90.02506240735086

_space_group_name_H-M_alt    "P 1"
_space_group_IT_number       1

loop_
  _space_group_symop_operation_xyz
  'x, y, z'

loop_
  _atom_site_type_symbol
  _atom_site_label
  _atom_site_symmetry_multiplicity
  _atom_site_fract_x
  _atom_site_fract_y
  _atom_site_fract_z
  _atom_site_occupancy
  V   V1        1.0  0.024812962859869003  0.8081780672073364  0.5804529190063477  1.0000
  H   H1        1.0  0.429932028055191  0.5649356842041016  0.9974204301834106  1.0000
  Fe  Fe1       1.0  0.3959702253341675  0.6081446409225464  0.32468244433403015  1.0000
  H   H2        1.0  0.03748178482055664  0.5689414143562317  0.9999718070030212  1.0000
  Fe  Fe2       1.0  0.8866323828697203  0.2701752483844757  0.3076346516609192  1.0000
  V   V2        1.0  0.6709357500076294  0.966534435749054  0.8738865852355957  1.0000
  H   H3        1.0  0.3157888650894165  0.9313677549362183  0.16501879692077634  1.0000
  V   V3        1.0  0.48920768499374384  0.1047627031803131  0.5134533643722534  1.0000
  F   F1        1.0  0.7052624225616455  0.6854385733604431  0.9406298398971558  1.0000
  O   O1        1.0  0.2628467082977295  0.5139451622962952  0.058391705155372606  1.0000
  O   O2        1.0  0.4294289350509643  0.33015426993370056  0.3943811058998108  1.0000
  O   O3        1.0  0.37403905391693115  0.9007115960121154  0.2842719852924347  1.0000
  O   O4        1.0  0.14604821801185608  0.9043682217597961  0.8241299986839294  1.0000
  O   O5        1.0  0.5239664316177368  0.7995275855064392  0.5807110667228699  1.0000
  O   O6        1.0  0.5995991826057434  0.18806326389312744  0.7360134720802307  1.0000
  O   O7        1.0  0.7696939706802368  0.11062129586935043  0.07342325150966643  1.0000
  O   O8        1.0  0.9814794063568114  0.07887014001607894  0.4978898763656616  1.0000
  O   O9        1.0  0.9155269265174865  0.5955662131309509  0.36726662516593933  1.0000
