data_image0
_chemical_formula_structural       YFeGaFeGaFe4YFe9
_chemical_formula_sum              "Y2 Fe15 Ga2"
_cell_length_a       6.400619923038497
_cell_length_b       6.400944115145432
_cell_length_c       6.40184211730957
_cell_angle_alpha    82.51854135328335
_cell_angle_beta     82.53666213249645
_cell_angle_gamma    82.53121091878

_space_group_name_H-M_alt    "P 1"
_space_group_IT_number       1

loop_
  _space_group_symop_operation_xyz
  'x, y, z'

loop_
  _atom_site_type_symbol
  _atom_site_label
  _atom_site_symmetry_multiplicity
  _atom_site_fract_x
  _atom_site_fract_y
  _atom_site_fract_z
  _atom_site_occupancy
  Y   Y1        1.0  0.6859695911407471  0.42593714594841003  0.18324919044971466  1.0000
  Fe  Fe1       1.0  0.6804988980293274  0.4203507602214813  0.6773361563682556  1.0000
  Ga  Ga1       1.0  0.4425908029079437  0.18223097920417788  0.9397239685058594  1.0000
  Fe  Fe2       1.0  0.6804648041725159  0.9198762774467468  0.1775778830051422  1.0000
  Ga  Ga2       1.0  0.23766061663627625  0.9776312708854675  0.7350262999534607  1.0000
  Fe  Fe3       1.0  0.499714732170105  0.7395437955856323  0.4968748390674591  1.0000
  Fe  Fe4       1.0  0.34005841612815857  0.38534849882125854  0.5320174694061279  1.0000
  Fe  Fe5       1.0  0.03489295765757561  0.07993969321250917  0.14223609864711761  1.0000
  Fe  Fe6       1.0  0.9997154474258423  0.7394520044326783  0.9969457387924194  1.0000
  Y   Y2        1.0  0.9940307140350342  0.7341572046279907  0.491364985704422  1.0000
  Fe  Fe7       1.0  0.9997916221618652  0.23984909057617188  0.4970709979534149  1.0000
  Fe  Fe8       1.0  0.34018364548683167  0.7748060822486877  0.1423628330230713  1.0000
  Fe  Fe9       1.0  0.8401010632514954  0.07993040233850479  0.8371807932853699  1.0000
  Fe  Fe10      1.0  0.18042464554309845  0.42020815610885626  0.17748375236988068  1.0000
  Fe  Fe11      1.0  0.34030991792678833  0.5798269510269165  0.8375874161720276  1.0000
  Fe  Fe12      1.0  0.3399416506290436  0.0797751620411873  0.3374890983104706  1.0000
  Fe  Fe13      1.0  0.6449110507965088  0.775079607963562  0.8375158905982971  1.0000
  Fe  Fe14      1.0  0.6450678706169128  0.07996302098035812  0.532069206237793  1.0000
  Fe  Fe15      1.0  0.03501499071717263  0.38492339849472046  0.837356686592102  1.0000
