data_image0
_chemical_formula_structural       SiO2Fe3OSiOFeO3SiO2FeO3
_chemical_formula_sum              "Si3 O12 Fe5"
_cell_length_a       5.491496881239209
_cell_length_b       6.655617839450686
_cell_length_c       7.787583351135254
_cell_angle_alpha    67.88540063818462
_cell_angle_beta     78.20061132864774
_cell_angle_gamma    74.62512933679862

_space_group_name_H-M_alt    "P 1"
_space_group_IT_number       1

loop_
  _space_group_symop_operation_xyz
  'x, y, z'

loop_
  _atom_site_type_symbol
  _atom_site_label
  _atom_site_symmetry_multiplicity
  _atom_site_fract_x
  _atom_site_fract_y
  _atom_site_fract_z
  _atom_site_occupancy
  Si  Si1       1.0  0.03465176746249199  0.3905296325683594  0.850713312625885  1.0000
  O   O1        1.0  0.8448689579963685  0.2310648411512375  0.8487851023674011  1.0000
  O   O2        1.0  0.1495031863451004  0.2865135967731476  0.057047151029109955  1.0000
  Fe  Fe1       1.0  0.9308542013168336  0.19543097913265228  0.31113144755363464  1.0000
  Fe  Fe2       1.0  0.9379962086677552  0.9571390748023987  0.7628823518753052  1.0000
  Fe  Fe3       1.0  0.5462985038757324  0.6590874791145325  0.013780715875327587  1.0000
  O   O3        1.0  0.2704498767852783  0.3902642130851746  0.6915478706359863  1.0000
  Si  Si2       1.0  0.8103445768356324  0.740407884120941  0.303993970155716  1.0000
  O   O4        1.0  0.5895252227783203  0.35582104325294495  0.2035137563943863  1.0000
  Fe  Fe4       1.0  0.3313136100769043  0.3785211741924286  0.4382365047931671  1.0000
  O   O5        1.0  0.6587725281715393  0.8525301218032837  0.11443085223436356  1.0000
  O   O6        1.0  0.9893488287925721  0.9030052423477173  0.28725430369377136  1.0000
  O   O7        1.0  0.6685943007469177  0.07090116292238235  0.5617148876190186  1.0000
  Si  Si3       1.0  0.4624124169349671  0.916534960269928  0.586922287940979  1.0000
  O   O8        1.0  0.8690328598022462  0.6403128504753113  0.8276435136795044  1.0000
  O   O9        1.0  0.3361218571662903  0.8188139796257019  0.8029382824897766  1.0000
  Fe  Fe5       1.0  0.531581461429596  0.19611714780330658  0.03659496456384659  1.0000
  O   O10       1.0  0.20709203183650973  0.07774465531110764  0.4864707291126251  1.0000
  O   O11       1.0  0.5928231477737427  0.7320655584335327  0.48555845022201544  1.0000
  O   O12       1.0  0.9652635455131532  0.4864140748977661  0.33439138531684875  1.0000
