data_image0
_chemical_formula_structural       EuGdOSbO2EuO3
_chemical_formula_sum              "Eu2 Gd1 O6 Sb1"
_cell_length_a       6.005437357943941
_cell_length_b       6.00447308676158
_cell_length_c       6.005879878997803
_cell_angle_alpha    59.98410217925686
_cell_angle_beta     59.99951136941725
_cell_angle_gamma    59.989518320655954

_space_group_name_H-M_alt    "P 1"
_space_group_IT_number       1

loop_
  _space_group_symop_operation_xyz
  'x, y, z'

loop_
  _atom_site_type_symbol
  _atom_site_label
  _atom_site_symmetry_multiplicity
  _atom_site_fract_x
  _atom_site_fract_y
  _atom_site_fract_z
  _atom_site_occupancy
  Eu  Eu1       1.0  0.2529093325138092  0.020820679143071178  0.9125132560729982  1.0000
  Gd  Gd1       1.0  0.5031924843788147  0.2710435688495636  0.16182386875152588  1.0000
  O   O1        1.0  0.23878204822540283  0.534997284412384  0.8979190587997438  1.0000
  Sb  Sb1       1.0  0.0030922619625926018  0.7707382440567017  0.6620000600814819  1.0000
  O   O2        1.0  0.2389211803674698  0.006828188896179199  0.42591857910156256  1.0000
  O   O3        1.0  0.7671476602554321  0.006704084109514952  0.8978936672210694  1.0000
  Eu  Eu2       1.0  0.753015100955963  0.5209673643112184  0.41184270381927496  1.0000
  O   O4        1.0  0.7670663595199584  0.5350637435913086  0.8981112241744996  1.0000
  O   O5        1.0  0.767026662826538  0.006871481426060201  0.4262689352035523  1.0000
  O   O6        1.0  0.2389490008354187  0.534915030002594  0.42616298794746404  1.0000
