data_image0
_chemical_formula_structural       NiCo2BMnNiB4
_chemical_formula_sum              "Ni2 Co2 B5 Mn1"
_cell_length_a       2.9173954723294235
_cell_length_b       5.191884157528653
_cell_length_c       5.2488603591918945
_cell_angle_alpha    89.36331280368452
_cell_angle_beta     90.03661914581657
_cell_angle_gamma    90.05863284107888

_space_group_name_H-M_alt    "P 1"
_space_group_IT_number       1

loop_
  _space_group_symop_operation_xyz
  'x, y, z'

loop_
  _atom_site_type_symbol
  _atom_site_label
  _atom_site_symmetry_multiplicity
  _atom_site_fract_x
  _atom_site_fract_y
  _atom_site_fract_z
  _atom_site_occupancy
  Ni  Ni1       1.0  0.5844483375549316  0.38315296173095703  0.5619664192199707  1.0000
  Co  Co1       1.0  0.5846004486083984  0.695160984992981  0.18053370714187622  1.0000
  Co  Co2       1.0  0.5849005579948425  0.8380295634269713  0.7197718024253845  1.0000
  B   B1        1.0  0.08440575003623962  0.9147233366966248  0.9909000396728516  1.0000
  Mn  Mn1       1.0  0.5849323272705078  0.23063309490680697  0.019727984443306923  1.0000
  Ni  Ni2       1.0  0.0845179557800293  0.037716083228588104  0.3708899915218353  1.0000
  B   B2        1.0  0.08433737605810165  0.421618938446045  0.24551522731781006  1.0000
  B   B3        1.0  0.084524005651474  0.5383126139640808  0.8724203705787659  1.0000
  B   B4        1.0  0.08431587368249893  0.6633858680725098  0.49059900641441345  1.0000
  B   B5        1.0  0.08480977267026901  0.15257057547569275  0.7450292110443115  1.0000
