data_image0
_chemical_formula_structural       Co3AsCo2EuAsCoAs2
_chemical_formula_sum              "Co6 As4 Eu1"
_cell_length_a       3.694435267155455
_cell_length_b       6.855350334846322
_cell_length_c       6.856386661529541
_cell_angle_alpha    120.01593365312564
_cell_angle_beta     90.02618945039912
_cell_angle_gamma    89.9652709912143

_space_group_name_H-M_alt    "P 1"
_space_group_IT_number       1

loop_
  _space_group_symop_operation_xyz
  'x, y, z'

loop_
  _atom_site_type_symbol
  _atom_site_label
  _atom_site_symmetry_multiplicity
  _atom_site_fract_x
  _atom_site_fract_y
  _atom_site_fract_z
  _atom_site_occupancy
  Co  Co1       1.0  0.20305749773979184  0.5468286871910095  0.6791000962257385  1.0000
  Co  Co2       1.0  0.20351095497608182  0.16660819947719574  0.29890233278274536  1.0000
  Co  Co3       1.0  0.7028849124908446  0.8258101940155028  0.6280940771102905  1.0000
  As  As1       1.0  0.20329894125461576  0.943584144115448  0.4727716147899629  1.0000
  Co  Co4       1.0  0.20301455259323117  0.5475111603736876  0.2986307442188263  1.0000
  Co  Co5       1.0  0.7031145095825194  0.2182183712720871  0.020349763333797455  1.0000
  Eu  Eu1       1.0  0.703054130077362  0.7533907294273375  0.09214136749505997  1.0000
  As  As2       1.0  0.20334859192371366  0.9439789056777953  0.9023431539535522  1.0000
  Co  Co6       1.0  0.7032444477081298  0.217679888010025  0.6277382373809814  1.0000
  As  As3       1.0  0.20274727046489713  0.37322977185249323  0.9022355675697327  1.0000
  As  As4       1.0  0.7032522559165953  0.4204307496547699  0.42520010471343994  1.0000
