data_image0
_chemical_formula_structural       Cr3ON2Cr3NO2CrNO2
_chemical_formula_sum              "Cr7 O5 N4"
_cell_length_a       4.12641954910356
_cell_length_b       6.592399331317571
_cell_length_c       6.543219089508057
_cell_angle_alpha    107.33119791121848
_cell_angle_beta     90.02768526081553
_cell_angle_gamma    108.11272896677156

_space_group_name_H-M_alt    "P 1"
_space_group_IT_number       1

loop_
  _space_group_symop_operation_xyz
  'x, y, z'

loop_
  _atom_site_type_symbol
  _atom_site_label
  _atom_site_symmetry_multiplicity
  _atom_site_fract_x
  _atom_site_fract_y
  _atom_site_fract_z
  _atom_site_occupancy
  Cr  Cr1       1.0  0.2148527055978775  0.03727024793624878  0.16922816634178162  1.0000
  Cr  Cr2       1.0  0.9955300092697144  0.597182035446167  0.8646718263626098  1.0000
  Cr  Cr3       1.0  0.7636087536811829  0.13169977068901062  0.49166601896286005  1.0000
  O   O1        1.0  0.3710601031780243  0.3461460769176483  0.16916745901107788  1.0000
  N   N1        1.0  0.15965567529201508  0.9252284169197083  0.8406647443771361  1.0000
  N   N2        1.0  0.2714436948299408  0.14722847938537598  0.5023233890533447  1.0000
  Cr  Cr4       1.0  0.43783795833587646  0.48132428526878357  0.4855258762836456  1.0000
  Cr  Cr5       1.0  0.3335057497024536  0.2728634476661682  0.8545325994491576  1.0000
  Cr  Cr6       1.0  0.6524704694747925  0.9089874029159546  0.8446671962738036  1.0000
  N   N3        1.0  0.6066927909851074  0.818559467792511  0.5262101888656616  1.0000
  O   O2        1.0  0.8234186172485352  0.2525070011615753  0.8206822872161864  1.0000
  O   O3        1.0  0.05854574218392372  0.7236679196357727  0.17478704452514646  1.0000
  Cr  Cr7       1.0  0.10177297145128245  0.8091529607772826  0.4909015297889709  1.0000
  N   N4        1.0  0.4868796467781067  0.5801382064819336  0.8171586990356444  1.0000
  O   O4        1.0  0.7151709794998169  0.03598728030920028  0.16969707608222961  1.0000
  O   O5        1.0  0.940541684627533  0.4865576326847076  0.5242000222206116  1.0000
