data_image0
_chemical_formula_structural       Mn2PtRh
_chemical_formula_sum              "Mn2 Pt1 Rh1"
_cell_length_a       4.364299839397386
_cell_length_b       4.364347423740741
_cell_length_c       4.363400459289551
_cell_angle_alpha    60.01847022438222
_cell_angle_beta     60.00362190118985
_cell_angle_gamma    59.98234056068726

_space_group_name_H-M_alt    "P 1"
_space_group_IT_number       1

loop_
  _space_group_symop_operation_xyz
  'x, y, z'

loop_
  _atom_site_type_symbol
  _atom_site_label
  _atom_site_symmetry_multiplicity
  _atom_site_fract_x
  _atom_site_fract_y
  _atom_site_fract_z
  _atom_site_occupancy
  Mn  Mn1       1.0  0.3498687744140625  0.1451918184757233  0.17294828593730927  1.0000
  Mn  Mn2       1.0  0.8500173091888428  0.64523983001709  0.6728736758232117  1.0000
  Pt  Pt1       1.0  0.5999132394790649  0.3951368033885956  0.4228208065032959  1.0000
  Rh  Rh1       1.0  0.09989238530397415  0.8951079845428468  0.9231212735176086  1.0000
