data_image0
_chemical_formula_structural       Fe3OFe2TiOFeO6
_chemical_formula_sum              "Fe6 O8 Ti1"
_cell_length_a       3.130696405297935
_cell_length_b       6.801273497371106
_cell_length_c       8.223240852355957
_cell_angle_alpha    86.46058494305596
_cell_angle_beta     79.08230085280604
_cell_angle_gamma    76.61807195166296

_space_group_name_H-M_alt    "P 1"
_space_group_IT_number       1

loop_
  _space_group_symop_operation_xyz
  'x, y, z'

loop_
  _atom_site_type_symbol
  _atom_site_label
  _atom_site_symmetry_multiplicity
  _atom_site_fract_x
  _atom_site_fract_y
  _atom_site_fract_z
  _atom_site_occupancy
  Fe  Fe1       1.0  0.821480393409729  0.4766623079776764  0.9559864997863771  1.0000
  Fe  Fe2       1.0  0.4207113981246948  0.11493105441331863  0.09339196234941483  1.0000
  Fe  Fe3       1.0  0.26807206869125366  0.008870631456375122  0.485727995634079  1.0000
  O   O1        1.0  0.9907654523849487  0.1734648048877716  0.9330903887748719  1.0000
  Fe  Fe4       1.0  0.1493862122297287  0.8928065896034241  0.8415549993515015  1.0000
  Fe  Fe5       1.0  0.043447695672512054  0.745759904384613  0.21583813428878784  1.0000
  Ti  Ti1       1.0  0.8634856939315796  0.5903397798538208  0.5999196767807007  1.0000
  O   O2        1.0  0.8124392032623291  0.04658949747681618  0.28825047612190247  1.0000
  Fe  Fe6       1.0  0.6667305827140808  0.3679799437522888  0.33401089906692505  1.0000
  O   O3        1.0  0.07514984905719753  0.3296137750148774  0.5142751932144165  1.0000
  O   O4        1.0  0.24801400303840637  0.4396591782569885  0.15846282243728638  1.0000
  O   O5        1.0  0.5998643636703491  0.7892281413078308  0.023222792893648148  1.0000
  O   O6        1.0  0.7708636522293091  0.8941956162452698  0.6474660634994507  1.0000
  O   O7        1.0  0.35182440280914307  0.5683255791664124  0.7596936821937561  1.0000
  O   O8        1.0  0.49782213568687433  0.6783214211463929  0.4235529899597168  1.0000
