data_image0
_chemical_formula_structural       LiMnLiMnOLiO2MnOMn2O5
_chemical_formula_sum              "Li3 Mn5 O9"
_cell_length_a       4.556950496739682
_cell_length_b       6.56544763545495
_cell_length_c       6.553490161895752
_cell_angle_alpha    107.64670468969933
_cell_angle_beta     110.3959024101513
_cell_angle_gamma    89.99505760994607

_space_group_name_H-M_alt    "P 1"
_space_group_IT_number       1

loop_
  _space_group_symop_operation_xyz
  'x, y, z'

loop_
  _atom_site_type_symbol
  _atom_site_label
  _atom_site_symmetry_multiplicity
  _atom_site_fract_x
  _atom_site_fract_y
  _atom_site_fract_z
  _atom_site_occupancy
  Li  Li1       1.0  0.017820371314883232  0.18974588811397552  0.6819210648536682  1.0000
  Mn  Mn1       1.0  0.34223139286041265  0.1768535375595093  0.33193472027778625  1.0000
  Li  Li2       1.0  0.7787957191467285  0.8153548240661621  0.20466412603855133  1.0000
  Mn  Mn2       1.0  0.8894820809364319  0.4976442754268646  0.42547759413719183  1.0000
  O   O1        1.0  0.17123669385910034  0.1284266859292984  0.9923391938209534  1.0000
  Li  Li3       1.0  0.5713526010513306  0.501157820224762  0.7912030816078186  1.0000
  O   O2        1.0  0.04719765484333038  0.5103448033332825  0.7428752183914185  1.0000
  O   O3        1.0  0.832676351070404  0.18092772364616394  0.3142041862010956  1.0000
  Mn  Mn3       1.0  0.11812372505664825  0.8134676814079285  0.8829752206802368  1.0000
  O   O4        1.0  0.5040643811225891  0.1515754759311676  0.6543583273887634  1.0000
  Mn  Mn4       1.0  0.4407578408718109  0.8178776502609253  0.5312151908874512  1.0000
  Mn  Mn5       1.0  0.6699717044830322  0.17328451573848724  0.9863146543502808  1.0000
  O   O5        1.0  0.7323983907699585  0.48112648725509644  0.11015649139881134  1.0000
  O   O6        1.0  0.9521721601486206  0.8121419548988343  0.5463833212852478  1.0000
  O   O7        1.0  0.2900523543357849  0.8575240969657898  0.2256918102502823  1.0000
  O   O8        1.0  0.40003323554992676  0.49673134088516235  0.4485894441604614  1.0000
  O   O9        1.0  0.6096600890159607  0.8491865992546082  0.8671959638595581  1.0000
