data_image0
_chemical_formula_structural       Ni2YMgNi2MgNi5
_chemical_formula_sum              "Ni9 Y1 Mg2"
_cell_length_a       4.832307061406927
_cell_length_b       4.832284245125262
_cell_length_c       7.944026470184326
_cell_angle_alpha    89.98079601090275
_cell_angle_beta     89.98353491749451
_cell_angle_gamma    119.96616761594996

_space_group_name_H-M_alt    "P 1"
_space_group_IT_number       1

loop_
  _space_group_symop_operation_xyz
  'x, y, z'

loop_
  _atom_site_type_symbol
  _atom_site_label
  _atom_site_symmetry_multiplicity
  _atom_site_fract_x
  _atom_site_fract_y
  _atom_site_fract_z
  _atom_site_occupancy
  Ni  Ni1       1.0  0.3164423406124115  0.9848264455795288  0.4565581679344177  1.0000
  Ni  Ni2       1.0  0.9884296059608458  0.8202942013740541  0.7878333926200867  1.0000
  Y   Y1        1.0  0.3211924135684967  0.4874385595321655  0.6541338562965393  1.0000
  Mg  Mg1       1.0  0.3215063810348511  0.48747390508651733  0.26389166712760925  1.0000
  Ni  Ni3       1.0  0.4875982105731964  0.8189868927001953  0.9642891883850098  1.0000
  Ni  Ni4       1.0  0.6544786095619202  0.15425318479537967  0.7134875059127808  1.0000
  Mg  Mg2       1.0  0.988276183605194  0.8204208612442017  0.13706469535827637  1.0000
  Ni  Ni5       1.0  0.9894602894783019  0.3209361732006073  0.9642183780670166  1.0000
  Ni  Ni6       1.0  0.8239529132843018  0.9849414825439454  0.4568805396556854  1.0000
  Ni  Ni7       1.0  0.8234970569610596  0.4924091994762421  0.45669791102409363  1.0000
  Ni  Ni8       1.0  0.6547465920448303  0.1541125327348709  0.21329765021800995  1.0000
  Ni  Ni9       1.0  0.48733553290367126  0.32133907079696655  0.9640906453132629  1.0000
