data_image0
_chemical_formula_structural       Eu3Pb
_chemical_formula_sum              "Eu3 Pb1"
_cell_length_a       5.12080670723309
_cell_length_b       5.119119678344223
_cell_length_c       5.124974250793457
_cell_angle_alpha    90.00662095801718
_cell_angle_beta     90.00411427861836
_cell_angle_gamma    90.01489914704412

_space_group_name_H-M_alt    "P 1"
_space_group_IT_number       1

loop_
  _space_group_symop_operation_xyz
  'x, y, z'

loop_
  _atom_site_type_symbol
  _atom_site_label
  _atom_site_symmetry_multiplicity
  _atom_site_fract_x
  _atom_site_fract_y
  _atom_site_fract_z
  _atom_site_occupancy
  Eu  Eu1       1.0  0.8698341846466064  0.20908446609973907  0.04551424831151962  1.0000
  Eu  Eu2       1.0  0.3692712187767029  0.7090058922767639  0.046182360500097275  1.0000
  Eu  Eu3       1.0  0.869826078414917  0.7086400389671326  0.5454702377319336  1.0000
  Pb  Pb1       1.0  0.3698172867298126  0.20915374159812927  0.5460205078125  1.0000
