data_image0
_chemical_formula_structural       Fe12Si2
_chemical_formula_sum              "Fe12 Si2"
_cell_length_a       4.895794854317705
_cell_length_b       6.182471077320914
_cell_length_c       6.912808895111084
_cell_angle_alpha    111.80925278331735
_cell_angle_beta     118.0516923593393
_cell_angle_gamma    97.3466559281036

_space_group_name_H-M_alt    "P 1"
_space_group_IT_number       1

loop_
  _space_group_symop_operation_xyz
  'x, y, z'

loop_
  _atom_site_type_symbol
  _atom_site_label
  _atom_site_symmetry_multiplicity
  _atom_site_fract_x
  _atom_site_fract_y
  _atom_site_fract_z
  _atom_site_occupancy
  Fe  Fe1       1.0  0.6875810623168945  0.06459646672010422  0.8797210454940796  1.0000
  Fe  Fe2       1.0  0.11844369024038315  0.494705617427826  0.16424335539340976  1.0000
  Fe  Fe3       1.0  0.04154825583100319  0.9224262833595276  0.4504437744617462  1.0000
  Fe  Fe4       1.0  0.3330550193786621  0.20701877772808078  0.3093748092651367  1.0000
  Fe  Fe5       1.0  0.46968042850494385  0.3541663885116577  0.7397859692573547  1.0000
  Fe  Fe6       1.0  0.7620161771774292  0.6373886466026306  0.5964789986610413  1.0000
  Fe  Fe7       1.0  0.25655415654182434  0.63387531042099  0.5955687165260315  1.0000
  Fe  Fe8       1.0  0.18701471388339996  0.06394173204898834  0.8801288604736328  1.0000
  Fe  Fe9       1.0  0.8337095379829407  0.21199132502079013  0.31056562066078186  1.0000
  Fe  Fe10      1.0  0.5418265461921692  0.9178186058998109  0.4495810270309448  1.0000
  Fe  Fe11      1.0  0.6123976707458496  0.4922400414943695  0.16274841129779816  1.0000
  Fe  Fe12      1.0  0.9058974385261536  0.7752236127853394  0.020684514194726944  1.0000
  Si  Si1       1.0  0.41992944478988653  0.7944929003715516  0.03271630033850676  1.0000
  Si  Si2       1.0  0.9562948346138  0.33480376005172735  0.7273851037025452  1.0000
