data_image0
_chemical_formula_structural       FeNiFePt
_chemical_formula_sum              "Fe2 Ni1 Pt1"
_cell_length_a       3.6844292522855833
_cell_length_b       3.6816112244656165
_cell_length_c       4.5735764503479
_cell_angle_alpha    113.7480907006424
_cell_angle_beta     113.74249101315063
_cell_angle_gamma    89.99378011878922

_space_group_name_H-M_alt    "P 1"
_space_group_IT_number       1

loop_
  _space_group_symop_operation_xyz
  'x, y, z'

loop_
  _atom_site_type_symbol
  _atom_site_label
  _atom_site_symmetry_multiplicity
  _atom_site_fract_x
  _atom_site_fract_y
  _atom_site_fract_z
  _atom_site_occupancy
  Fe  Fe1       1.0  0.8930419683456421  0.24195608496665957  0.7655999660491943  1.0000
  Ni  Ni1       1.0  0.14296659827232364  0.9922803640365602  0.26566159725189215  1.0000
  Fe  Fe2       1.0  0.3930904269218445  0.7424797415733337  0.7656673789024353  1.0000
  Pt  Pt1       1.0  0.6428585648536682  0.4921667575836182  0.26537325978279114  1.0000
