data_image0
_chemical_formula_structural       VO2V3O6
_chemical_formula_sum              "V4 O8"
_cell_length_a       4.5387439398839255
_cell_length_b       5.4311654705367856
_cell_length_c       5.431042194366455
_cell_angle_alpha    113.29577082360056
_cell_angle_beta     90.03649620579736
_cell_angle_gamma    90.07333824007382

_space_group_name_H-M_alt    "P 1"
_space_group_IT_number       1

loop_
  _space_group_symop_operation_xyz
  'x, y, z'

loop_
  _atom_site_type_symbol
  _atom_site_label
  _atom_site_symmetry_multiplicity
  _atom_site_fract_x
  _atom_site_fract_y
  _atom_site_fract_z
  _atom_site_occupancy
  V   V1        1.0  0.5704220533370972  0.6958894729614259  0.34334081411361694  1.0000
  O   O1        1.0  0.8713546395301819  0.8463120460510254  0.19273051619529724  1.0000
  O   O2        1.0  0.26979267597198486  0.5449340343475342  0.49382963776588434  1.0000
  V   V2        1.0  0.0702541396021843  0.19517165422439578  0.3428923785686493  1.0000
  V   V3        1.0  0.07048949599266052  0.6956940889358522  0.8429375886917114  1.0000
  V   V4        1.0  0.5708516240119934  0.19587053358554843  0.8432459831237793  1.0000
  O   O3        1.0  0.37259891629219055  0.5456627607345581  0.9935244321823119  1.0000
  O   O4        1.0  0.37211084365844727  0.045209832489490516  0.4939438700675964  1.0000
  O   O5        1.0  0.8723920583724976  0.3458498418331147  0.6925172805786133  1.0000
  O   O6        1.0  0.7692381143569946  0.8460215330123901  0.6926560401916504  1.0000
  O   O7        1.0  0.2693333625793457  0.04559142142534256  0.9939886927604674  1.0000
  O   O8        1.0  0.7693464756011963  0.34632134437561035  0.192851260304451  1.0000
