data_image0
_chemical_formula_structural       Fe2HFePtFe2HPtFeH2
_chemical_formula_sum              "Fe6 H4 Pt2"
_cell_length_a       5.503328306851652
_cell_length_b       5.250010502297
_cell_length_c       5.494134426116943
_cell_angle_alpha    118.4414767657594
_cell_angle_beta     94.34273912108169
_cell_angle_gamma    118.47422042290162

_space_group_name_H-M_alt    "P 1"
_space_group_IT_number       1

loop_
  _space_group_symop_operation_xyz
  'x, y, z'

loop_
  _atom_site_type_symbol
  _atom_site_label
  _atom_site_symmetry_multiplicity
  _atom_site_fract_x
  _atom_site_fract_y
  _atom_site_fract_z
  _atom_site_occupancy
  Fe  Fe1       1.0  0.0467963702976704  0.3819942176342011  0.5528127551078796  1.0000
  Fe  Fe2       1.0  0.04676070436835289  0.8822463750839233  0.5527560114860534  1.0000
  H   H1        1.0  0.7638127207756042  0.8821673393249512  0.3370891511440277  1.0000
  Fe  Fe3       1.0  0.5468403697013855  0.8824999332427979  0.05291943624615669  1.0000
  Pt  Pt1       1.0  0.5467661023139954  0.3824813961982727  0.5529857277870178  1.0000
  Fe  Fe4       1.0  0.04697153717279434  0.38272932171821594  0.05281148850917816  1.0000
  Fe  Fe5       1.0  0.5468134880065918  0.3829326033592224  0.0530492439866066  1.0000
  H   H2        1.0  0.2644628882408142  0.3823615610599518  0.8357928991317749  1.0000
  Pt  Pt2       1.0  0.046781010925769806  0.8828957080841064  0.05320094898343086  1.0000
  Fe  Fe6       1.0  0.5467760562896729  0.8817043900489807  0.5526999831199646  1.0000
  H   H3        1.0  0.3307095170021057  0.8823291659355164  0.7690896391868591  1.0000
  H   H4        1.0  0.8289480805397034  0.38269269466400146  0.27069091796875  1.0000
