data_image0
_chemical_formula_structural       GdBiGdO3PbOBiO2
_chemical_formula_sum              "Gd2 Bi2 O6 Pb1"
_cell_length_a       3.9328457212548984
_cell_length_b       3.9323281621859705
_cell_length_c       12.574843406677246
_cell_angle_alpha    99.08603917327758
_cell_angle_beta     98.94945573375475
_cell_angle_gamma    90.03293077036318

_space_group_name_H-M_alt    "P 1"
_space_group_IT_number       1

loop_
  _space_group_symop_operation_xyz
  'x, y, z'

loop_
  _atom_site_type_symbol
  _atom_site_label
  _atom_site_symmetry_multiplicity
  _atom_site_fract_x
  _atom_site_fract_y
  _atom_site_fract_z
  _atom_site_occupancy
  Gd  Gd1       1.0  0.2795604169368744  0.16397592425346375  0.9691469073295593  1.0000
  Bi  Bi1       1.0  0.0720430389046669  0.9548456668853759  0.5546103119850159  1.0000
  Gd  Gd2       1.0  0.47715410590171814  0.358374536037445  0.36414939165115356  1.0000
  O   O1        1.0  0.8036044239997864  0.6890767812728881  0.019908513873815536  1.0000
  O   O2        1.0  0.5248656868934631  0.9063186645507811  0.4602799415588379  1.0000
  O   O3        1.0  0.024205805733799934  0.40786451101303095  0.46035560965538025  1.0000
  Pb  Pb1       1.0  0.889042854309082  0.7726864814758301  0.19011181592941284  1.0000
  O   O4        1.0  0.37739911675453186  0.26193809509277344  0.1661389321088791  1.0000
  Bi  Bi2       1.0  0.6787554025650024  0.5626489520072937  0.7677848935127258  1.0000
  O   O5        1.0  0.22198368608951569  0.6056211590766907  0.8533552885055542  1.0000
  O   O6        1.0  0.7212749123573303  0.10625665634870529  0.8530922532081604  1.0000
