# generated using pymatgen
data_Sr2Tl6In4GaCu2AgRh2
_symmetry_space_group_name_H-M   'P 1'
_cell_length_a   6.56063747
_cell_length_b   6.76526880
_cell_length_c   7.05355358
_cell_angle_alpha   84.42926025
_cell_angle_beta   71.43194580
_cell_angle_gamma   70.89763641
_symmetry_Int_Tables_number   1
_chemical_formula_structural   Sr2Tl6In4GaCu2AgRh2
_chemical_formula_sum   'Sr2 Tl6 In4 Ga1 Cu2 Ag1 Rh2'
_cell_volume   280.42134158
_cell_formula_units_Z   1
loop_
 _symmetry_equiv_pos_site_id
 _symmetry_equiv_pos_as_xyz
  1  'x, y, z'
loop_
 _atom_site_type_symbol
 _atom_site_label
 _atom_site_symmetry_multiplicity
 _atom_site_fract_x
 _atom_site_fract_y
 _atom_site_fract_z
 _atom_site_occupancy
  Sr  Sr0  1  0.84203362  0.78297883  0.72908545  1
  Tl  Tl1  1  0.88234031  0.62417519  0.21560872  1
  Tl  Tl2  1  0.90388268  0.27402076  0.89086378  1
  Tl  Tl3  1  0.38391435  0.60223418  0.22418666  1
  Tl  Tl4  1  0.41082808  0.11490590  0.10707831  1
  Sr  Sr5  1  0.42415261  0.45087191  0.71208435  1
  Tl  Tl6  1  0.85015839  0.12195398  0.33493873  1
  Rh  Rh7  1  0.08124666  0.34453350  0.47135222  1
  Rh  Rh8  1  0.16079396  0.89403236  0.98256004  1
  Tl  Tl9  1  0.36193120  0.95799130  0.55927455  1
  In  In10  1  0.85177314  0.00946872  0.10489577  1
  Ag  Ag11  1  0.05128762  0.48922053  0.31629181  1
  Ga  Ga12  1  0.04333339  0.48952395  0.81461537  1
  In  In13  1  0.60313839  0.37180394  0.56594759  1
  In  In14  1  0.48816270  0.61674583  0.06760788  1
  Cu  Cu15  1  0.73051578  0.85418189  0.64276677  1
  In  In16  1  0.23301251  0.97369051  0.52912557  1
  Cu  Cu17  1  0.36096013  0.13651350  0.98789024  1
