# generated using pymatgen
data_Li4Ca2CeYMg2(CoSi)2
_symmetry_space_group_name_H-M   'P 1'
_cell_length_a   4.76757669
_cell_length_b   5.73229361
_cell_length_c   6.27906179
_cell_angle_alpha   91.67845154
_cell_angle_beta   89.80320740
_cell_angle_gamma   89.85651398
_symmetry_Int_Tables_number   1
_chemical_formula_structural   Li4Ca2CeYMg2(CoSi)2
_chemical_formula_sum   'Li4 Ca2 Ce1 Y1 Mg2 Co2 Si2'
_cell_volume   171.52619750
_cell_formula_units_Z   1
loop_
 _symmetry_equiv_pos_site_id
 _symmetry_equiv_pos_as_xyz
  1  'x, y, z'
loop_
 _atom_site_type_symbol
 _atom_site_label
 _atom_site_symmetry_multiplicity
 _atom_site_fract_x
 _atom_site_fract_y
 _atom_site_fract_z
 _atom_site_occupancy
  Si  Si0  1  0.43739054  0.22843120  0.22611602  1
  Li  Li1  1  0.93610561  0.45189124  0.36221546  1
  Li  Li2  1  0.43963394  0.49550265  0.57387787  1
  Si  Si3  1  0.93896818  0.72324544  0.71079624  1
  Ca  Ca4  1  0.93074620  0.22350702  0.87661767  1
  Ca  Ca5  1  0.43650106  0.73450422  0.06507419  1
  Li  Li6  1  0.93722004  0.00131821  0.35695201  1
  Li  Li7  1  0.42994869  0.95636582  0.57139581  1
  Ce  Ce8  1  0.14686257  0.70105487  0.74033087  1
  Co  Co9  1  0.64793944  0.98418194  0.98656064  1
  Mg  Mg10  1  0.15077993  0.98343807  0.26865402  1
  Mg  Mg11  1  0.63757753  0.20645508  0.63827980  1
  Y  Y12  1  0.64337492  0.48318979  0.16537845  1
  Co  Co13  1  0.14076166  0.21211086  0.92434871  1
