# generated using pymatgen
data_RbYbTm2MgBeTlZn2CdCu2AgPPdS7
_symmetry_space_group_name_H-M   'P 1'
_cell_length_a   3.89496541
_cell_length_b   5.75229454
_cell_length_c   7.33887863
_cell_angle_alpha   106.19025421
_cell_angle_beta   94.59562683
_cell_angle_gamma   106.63005829
_symmetry_Int_Tables_number   1
_chemical_formula_structural   RbYbTm2MgBeTlZn2CdCu2AgPPdS7
_chemical_formula_sum
'Rb1 Yb1 Tm2 Mg1 Be1 Tl1 Zn2 Cd1 Cu2 Ag1 P1 Pd1 S7'
_cell_volume   148.99914206
_cell_formula_units_Z   1
loop_
 _symmetry_equiv_pos_site_id
 _symmetry_equiv_pos_as_xyz
  1  'x, y, z'
loop_
 _atom_site_type_symbol
 _atom_site_label
 _atom_site_symmetry_multiplicity
 _atom_site_fract_x
 _atom_site_fract_y
 _atom_site_fract_z
 _atom_site_occupancy
  Ag  Ag0  1  0.45916629  0.59060520  0.41395822  1
  Tm  Tm1  1  0.06965990  0.80207223  0.79535758  1
  Cu  Cu2  1  0.84256107  0.36238533  0.47792792  1
  Yb  Yb3  1  0.15220737  0.97519666  0.32676300  1
  Cu  Cu4  1  0.69142938  0.05354612  0.64065421  1
  Pd  Pd5  1  0.52680850  0.71225929  0.05481303  1
  Tm  Tm6  1  0.81963480  0.31491452  0.05894499  1
  Zn  Zn7  1  0.34520426  0.35173619  0.73175699  1
  Rb  Rb8  1  0.17733096  0.62111503  0.09545070  1
  S  S9  1  0.82622528  0.76853681  0.39588553  1
  S  S10  1  0.16434908  0.00805057  0.89855874  1
  Mg  Mg11  1  0.56807637  0.42783535  0.68720359  1
  S  S12  1  0.39163202  0.48867208  0.42759943  1
  S  S13  1  0.58738339  0.37894011  0.97298324  1
  P  P14  1  0.44385037  0.08224294  0.82445323  1
  Zn  Zn15  1  0.96207774  0.06120335  0.66517413  1
  S  S16  1  0.63783991  0.85377145  0.81146026  1
  Cd  Cd17  1  0.09225667  0.64428371  0.58515137  1
  Be  Be18  1  0.56147909  0.76469576  0.52297866  1
  S  S19  1  0.92304277  0.37078863  0.65338308  1
  Tl  Tl20  1  0.74093592  0.14501718  0.24565962  1
  S  S21  1  0.39795139  0.02986979  0.54409826  1
