# generated using pymatgen
data_LiMg4U4FeGe4(BiRh2)2
_symmetry_space_group_name_H-M   'P 1'
_cell_length_a   4.87356234
_cell_length_b   5.32992172
_cell_length_c   12.44201183
_cell_angle_alpha   92.27622223
_cell_angle_beta   92.80673981
_cell_angle_gamma   112.86616516
_symmetry_Int_Tables_number   1
_chemical_formula_structural   LiMg4U4FeGe4(BiRh2)2
_chemical_formula_sum   'Li1 Mg4 U4 Fe1 Ge4 Bi2 Rh4'
_cell_volume   296.82836077
_cell_formula_units_Z   1
loop_
 _symmetry_equiv_pos_site_id
 _symmetry_equiv_pos_as_xyz
  1  'x, y, z'
loop_
 _atom_site_type_symbol
 _atom_site_label
 _atom_site_symmetry_multiplicity
 _atom_site_fract_x
 _atom_site_fract_y
 _atom_site_fract_z
 _atom_site_occupancy
  Mg  Mg0  1  0.37889764  0.48934457  0.79768461  1
  U  U1  1  0.05280073  0.82711560  0.67294806  1
  U  U2  1  0.71338016  0.14934796  0.92326063  1
  Mg  Mg3  1  0.37684354  0.49058011  0.54738039  1
  Ge  Ge4  1  0.73087144  0.18504412  0.67408001  1
  U  U5  1  0.71121824  0.14961776  0.42198914  1
  Ge  Ge6  1  0.03523896  0.79599541  0.92346454  1
  Mg  Mg7  1  0.38617009  0.48953912  0.29787430  1
  U  U8  1  0.05608758  0.82825142  0.17161451  1
  Ge  Ge9  1  0.72303963  0.17639540  0.17079468  1
  Mg  Mg10  1  0.38383257  0.48110184  0.04770559  1
  Ge  Ge11  1  0.03207474  0.79603565  0.42100054  1
  Rh  Rh12  1  0.90881723  0.62383801  0.29825282  1
  Li  Li13  1  0.90160054  0.64054871  0.77002215  1
  Rh  Rh14  1  0.41071388  0.45828852  0.45125094  1
  Rh  Rh15  1  0.90392673  0.10548885  0.77827692  1
  Bi  Bi16  1  0.90732902  0.11293361  0.28753245  1
  Rh  Rh17  1  0.40114745  0.94684619  0.94543689  1
  Fe  Fe18  1  0.40996677  0.92819691  0.47108012  1
  Bi  Bi19  1  0.41088176  0.45233932  0.95235276  1
