# generated using pymatgen
data_Li3Mn(BiTe)2
_symmetry_space_group_name_H-M   'P 1'
_cell_length_a   4.17763472
_cell_length_b   4.16539049
_cell_length_c   6.67740726
_cell_angle_alpha   65.10844421
_cell_angle_beta   69.60862732
_cell_angle_gamma   59.61326599
_symmetry_Int_Tables_number   1
_chemical_formula_structural   Li3Mn(BiTe)2
_chemical_formula_sum   'Li3 Mn1 Bi2 Te2'
_cell_volume   89.54962476
_cell_formula_units_Z   1
loop_
 _symmetry_equiv_pos_site_id
 _symmetry_equiv_pos_as_xyz
  1  'x, y, z'
loop_
 _atom_site_type_symbol
 _atom_site_label
 _atom_site_symmetry_multiplicity
 _atom_site_fract_x
 _atom_site_fract_y
 _atom_site_fract_z
 _atom_site_occupancy
  Li  Li0  1  0.35341564  0.25330096  0.39702046  1
  Te  Te1  1  0.59662753  0.50851429  0.66668415  1
  Te  Te2  1  0.11820792  0.01684896  0.11984843  1
  Mn  Mn3  1  0.86255199  0.75758171  0.89435291  1
  Bi  Bi4  1  0.33072385  0.72752988  0.22131065  1
  Bi  Bi5  1  0.33345506  0.21979380  0.72670335  1
  Li  Li6  1  0.83306986  0.72861993  0.71809244  1
  Li  Li7  1  0.82772386  0.22667590  0.22413777  1
