# generated using pymatgen
data_KBaMnFe2Co3Cu3AsPb5S18
_symmetry_space_group_name_H-M   'P 1'
_cell_length_a   4.42258167
_cell_length_b   6.73008108
_cell_length_c   10.22691059
_cell_angle_alpha   96.58615875
_cell_angle_beta   93.90445709
_cell_angle_gamma   90.74648285
_symmetry_Int_Tables_number   1
_chemical_formula_structural   KBaMnFe2Co3Cu3AsPb5S18
_chemical_formula_sum   'K1 Ba1 Mn1 Fe2 Co3 Cu3 As1 Pb5 S18'
_cell_volume   301.61976773
_cell_formula_units_Z   1
loop_
 _symmetry_equiv_pos_site_id
 _symmetry_equiv_pos_as_xyz
  1  'x, y, z'
loop_
 _atom_site_type_symbol
 _atom_site_label
 _atom_site_symmetry_multiplicity
 _atom_site_fract_x
 _atom_site_fract_y
 _atom_site_fract_z
 _atom_site_occupancy
  Fe  Fe0  1  0.68735003  0.05381544  0.86639690  1
  K  K1  1  0.00746114  0.05963917  0.49990380  1
  Co  Co2  1  0.15428066  0.75674522  0.80084783  1
  Cu  Cu3  1  0.79718465  0.70998389  0.00771208  1
  S  S4  1  0.19189304  0.07039125  0.88804919  1
  S  S5  1  0.85249680  0.52472901  0.18341714  1
  S  S6  1  0.65269214  0.77316600  0.77048665  1
  S  S7  1  0.06955328  0.62396663  0.59856153  1
  S  S8  1  0.25785545  0.58670950  0.96040094  1
  Mn  Mn9  1  0.36834845  0.58829993  0.19792238  1
  S  S10  1  0.62085146  0.28249800  0.71433872  1
  S  S11  1  0.78859049  0.05271370  0.07214256  1
  Cu  Cu12  1  0.94578272  0.50235635  0.39521360  1
  S  S13  1  0.44634482  0.41500211  0.40162173  1
  Co  Co14  1  0.55433941  0.52409327  0.60692000  1
  Co  Co15  1  0.30398157  0.02206194  0.09902016  1
  S  S16  1  0.41038248  0.90679818  0.28373516  1
  Cu  Cu17  1  0.14145578  0.35592377  0.79105097  1
  S  S18  1  0.94584590  0.75822389  0.23084475  1
  Pb  Pb19  1  0.38142943  0.57026279  0.10590644  1
  S  S20  1  0.54980260  0.25851235  0.19443716  1
  Pb  Pb21  1  0.29311287  0.57019889  0.55244088  1
  S  S22  1  0.37556681  0.85865599  0.97830766  1
  As  As23  1  0.01451084  0.07131815  0.60670376  1
  S  S24  1  0.74646580  0.25951061  0.54292822  1
  Pb  Pb25  1  0.87593955  0.06970409  0.07764636  1
  Fe  Fe26  1  0.77139270  0.49528146  0.30438226  1
  S  S27  1  0.83710039  0.35656717  0.96796340  1
  S  S28  1  0.96969587  0.83799744  0.48480654  1
  Pb  Pb29  1  0.81726235  0.64819020  0.85198063  1
  S  S30  1  0.25435069  0.46595934  0.74962056  1
  S  S31  1  0.75602710  0.94970465  0.71580249  1
  S  S32  1  0.26108646  0.43757948  0.37397176  1
  Pb  Pb33  1  0.29293990  0.16099860  0.84068930  1
  Ba  Ba34  1  0.53801930  0.00319988  0.35221791  1
