# generated using pymatgen
data_NaCaCeSnGe3AsPPd7F6
_symmetry_space_group_name_H-M   'P 1'
_cell_length_a   5.08906555
_cell_length_b   5.30337715
_cell_length_c   5.94099808
_cell_angle_alpha   111.92730713
_cell_angle_beta   92.05567169
_cell_angle_gamma   89.80149841
_symmetry_Int_Tables_number   1
_chemical_formula_structural   NaCaCeSnGe3AsPPd7F6
_chemical_formula_sum   'Na1 Ca1 Ce1 Sn1 Ge3 As1 P1 Pd7 F6'
_cell_volume   148.63926289
_cell_formula_units_Z   1
loop_
 _symmetry_equiv_pos_site_id
 _symmetry_equiv_pos_as_xyz
  1  'x, y, z'
loop_
 _atom_site_type_symbol
 _atom_site_label
 _atom_site_symmetry_multiplicity
 _atom_site_fract_x
 _atom_site_fract_y
 _atom_site_fract_z
 _atom_site_occupancy
  As  As0  1  0.80383652  0.90396374  0.02597219  1
  F  F1  1  0.03073188  0.18155675  0.01259334  1
  F  F2  1  0.59838843  0.92238611  0.75481105  1
  F  F3  1  0.58936852  0.18024588  0.28860223  1
  F  F4  1  0.02124907  0.88633531  0.28757197  1
  Na  Na5  1  0.29602674  0.23963062  0.66666299  1
  F  F6  1  0.00462140  0.61905068  0.75628006  1
  F  F7  1  0.58223778  0.61299014  0.01344584  1
  Pd  Pd8  1  0.66798806  0.37973890  0.69646204  1
  Sn  Sn9  1  0.65958965  0.36044940  0.51239049  1
  Ge  Ge10  1  0.99892735  0.03529117  0.36518919  1
  Ge  Ge11  1  0.00584081  0.04247333  0.68194968  1
  Pd  Pd12  1  0.33333105  0.69960797  0.60637498  1
  Pd  Pd13  1  0.33952019  0.70477200  0.42253318  1
  Pd  Pd14  1  0.99309933  0.04285959  0.87210792  1
  Pd  Pd15  1  0.32743943  0.70571822  0.78857380  1
  Ca  Ca16  1  0.32135344  0.70127451  0.22382018  1
  Ce  Ce17  1  0.33431813  0.71718943  0.98383284  1
  P  P18  1  0.66795117  0.37144279  0.86105889  1
  Pd  Pd19  1  0.66651601  0.37060651  0.32593259  1
  Pd  Pd20  1  0.99705088  0.04402433  0.09479447  1
  Ge  Ge21  1  0.65563357  0.36744511  0.11759978  1
