# generated using pymatgen
data_Ca2Zr2U3GaS9O5
_symmetry_space_group_name_H-M   'P 1'
_cell_length_a   6.29470158
_cell_length_b   7.66855717
_cell_length_c   7.47652388
_cell_angle_alpha   73.48908234
_cell_angle_beta   65.73141479
_cell_angle_gamma   72.92594910
_symmetry_Int_Tables_number   1
_chemical_formula_structural   Ca2Zr2U3GaS9O5
_chemical_formula_sum   'Ca2 Zr2 U3 Ga1 S9 O5'
_cell_volume   308.92091858
_cell_formula_units_Z   1
loop_
 _symmetry_equiv_pos_site_id
 _symmetry_equiv_pos_as_xyz
  1  'x, y, z'
loop_
 _atom_site_type_symbol
 _atom_site_label
 _atom_site_symmetry_multiplicity
 _atom_site_fract_x
 _atom_site_fract_y
 _atom_site_fract_z
 _atom_site_occupancy
  S  S0  1  0.37981313  0.75963300  0.81200290  1
  S  S1  1  0.56917053  0.01259346  0.38841102  1
  S  S2  1  0.78553373  0.60649091  0.11104518  1
  U  U3  1  0.93855751  0.92312181  0.04524970  1
  S  S4  1  0.90923494  0.88663274  0.70041311  1
  Zr  Zr5  1  0.49185991  0.08606175  0.75396979  1
  U  U6  1  0.79581296  0.53879046  0.76625466  1
  Ca  Ca7  1  0.13208118  0.30003625  0.31586555  1
  S  S8  1  0.22002982  0.01844878  0.14237741  1
  S  S9  1  0.65216750  0.38735619  0.54487085  1
  U  U10  1  0.38519204  0.73976922  0.43398517  1
  S  S11  1  0.57601529  0.25772029  0.99330366  1
  S  S12  1  0.11570987  0.22789328  0.73984039  1
  S  S13  1  0.08317503  0.63370377  0.36687511  1
  Ga  Ga14  1  0.64029092  0.66280508  0.88660622  1
  O  O15  1  0.61072969  0.69683945  0.19114274  1
  O  O16  1  0.66254872  0.18622801  0.85011625  1
  O  O17  1  0.11195359  0.31249118  0.40929449  1
  Zr  Zr18  1  0.60962939  0.34042835  0.50108886  1
  Ca  Ca19  1  0.12853111  0.00417094  0.14323395  1
  O  O20  1  0.59196645  0.80484778  0.58571112  1
  O  O21  1  0.12543039  0.59435362  0.93649226  1
