# generated using pymatgen
data_Li7CaNb2V3O17
_symmetry_space_group_name_H-M   'P 1'
_cell_length_a   4.63371181
_cell_length_b   4.59873819
_cell_length_c   9.12289810
_cell_angle_alpha   94.64793396
_cell_angle_beta   90.44033813
_cell_angle_gamma   94.52204132
_symmetry_Int_Tables_number   1
_chemical_formula_structural   Li7CaNb2V3O17
_chemical_formula_sum   'Li7 Ca1 Nb2 V3 O17'
_cell_volume   193.14006128
_cell_formula_units_Z   1
loop_
 _symmetry_equiv_pos_site_id
 _symmetry_equiv_pos_as_xyz
  1  'x, y, z'
loop_
 _atom_site_type_symbol
 _atom_site_label
 _atom_site_symmetry_multiplicity
 _atom_site_fract_x
 _atom_site_fract_y
 _atom_site_fract_z
 _atom_site_occupancy
  Li  Li0  1  0.39469153  0.71674728  0.33313313  1
  O  O1  1  0.17506823  0.01191787  0.96156305  1
  Li  Li2  1  0.89196670  0.71699625  0.58418614  1
  O  O3  1  0.61811566  0.44628039  0.46918663  1
  V  V4  1  0.39913827  0.21800199  0.08530462  1
  V  V5  1  0.39287725  0.22316031  0.57963276  1
  Li  Li6  1  0.89587682  0.21263774  0.33447427  1
  Li  Li7  1  0.39291725  0.72485816  0.83178639  1
  O  O8  1  0.18696982  0.41403866  0.20366681  1
  O  O9  1  0.15542790  0.98604876  0.46861589  1
  O  O10  1  0.60304481  0.42801476  0.96173024  1
  O  O11  1  0.62498254  0.98814791  0.69837147  1
  O  O12  1  0.59947306  0.01608610  0.20360075  1
  Li  Li13  1  0.88897026  0.22909212  0.83018005  1
  O  O14  1  0.15788901  0.44838497  0.69621861  1
  O  O15  1  0.06868269  0.30865505  0.67198366  1
  O  O16  1  0.92721915  0.32073197  0.06909770  1
  O  O17  1  0.23979619  0.16346402  0.25275859  1
  O  O18  1  0.48845774  0.57883984  0.03563596  1
  O  O19  1  0.73367196  0.48090088  0.43333867  1
  Nb  Nb20  1  0.00147597  0.32570589  0.36693177  1
  O  O21  1  0.93567938  0.87932473  0.87434334  1
  V  V22  1  0.55947411  0.66152018  0.30550027  1
  Ca  Ca23  1  0.75918788  0.47792017  0.81894583  1
  Nb  Nb24  1  0.18056901  0.17628227  0.92698950  1
  O  O25  1  0.44987887  0.10957799  0.80632508  1
  Li  Li26  1  0.40598679  0.03308050  0.47522461  1
  O  O27  1  0.27339306  0.64893389  0.40366027  1
  Li  Li28  1  0.64268309  0.95582831  0.97860861  1
  O  O29  1  0.71222407  0.97754645  0.34562457  1
