# generated using pymatgen
data_K2RbLa4PrCo2Cu(Cl2O3)3
_symmetry_space_group_name_H-M   'P 1'
_cell_length_a   6.36791277
_cell_length_b   6.28119230
_cell_length_c   6.82685184
_cell_angle_alpha   111.32294464
_cell_angle_beta   113.95858002
_cell_angle_gamma   93.11901855
_symmetry_Int_Tables_number   1
_chemical_formula_structural   K2RbLa4PrCo2Cu(Cl2O3)3
_chemical_formula_sum   'K2 Rb1 La4 Pr1 Co2 Cu1 Cl6 O9'
_cell_volume   225.80852274
_cell_formula_units_Z   1
loop_
 _symmetry_equiv_pos_site_id
 _symmetry_equiv_pos_as_xyz
  1  'x, y, z'
loop_
 _atom_site_type_symbol
 _atom_site_label
 _atom_site_symmetry_multiplicity
 _atom_site_fract_x
 _atom_site_fract_y
 _atom_site_fract_z
 _atom_site_occupancy
  La  La0  1  0.98686749  0.14305119  0.38753137  1
  O  O1  1  0.43478560  0.46276584  0.14794771  1
  O  O2  1  0.83297467  0.37181383  0.64559066  1
  O  O3  1  0.55524004  0.04553448  0.08811174  1
  O  O4  1  0.33321184  0.05805891  0.35899025  1
  O  O5  1  0.64780492  0.85440445  0.68730527  1
  La  La6  1  0.22775578  0.67324799  0.37005207  1
  La  La7  1  0.59949356  0.26970857  0.85766715  1
  O  O8  1  0.98916024  0.25825220  0.08950466  1
  O  O9  1  0.28589198  0.53666306  0.68061411  1
  La  La10  1  0.07641219  0.83479917  0.88344485  1
  O  O11  1  0.15529448  0.01607258  0.67142588  1
  Co  Co12  1  0.53918314  0.30119553  0.35145545  1
  O  O13  1  0.85997558  0.71368468  0.07975525  1
  Co  Co14  1  0.58645129  0.77588212  0.88253975  1
  Cu  Cu15  1  0.11028051  0.31505907  0.87992036  1
  K  K16  1  0.14024848  0.07324912  0.44014949  1
  Cl  Cl17  1  0.88015127  0.81188726  0.70255667  1
  Cl  Cl18  1  0.88287276  0.33718234  0.17897975  1
  K  K19  1  0.38823414  0.32184416  0.68382347  1
  Rb  Rb20  1  0.89108539  0.82538623  0.19147402  1
  Cl  Cl21  1  0.87436122  0.33409709  0.69786412  1
  Cl  Cl22  1  0.40514520  0.80529213  0.70007443  1
  Cl  Cl23  1  0.39799169  0.33541787  0.17339578  1
  Cl  Cl24  1  0.40391362  0.81502116  0.17732120  1
  Pr  Pr25  1  0.63791883  0.57090068  0.94152141  1
