# generated using pymatgen
data_CsCaY2Ni2BiB2SbO11F7
_symmetry_space_group_name_H-M   'P 1'
_cell_length_a   6.36432505
_cell_length_b   6.37597799
_cell_length_c   6.68374348
_cell_angle_alpha   61.53128815
_cell_angle_beta   68.75254059
_cell_angle_gamma   68.24327850
_symmetry_Int_Tables_number   1
_chemical_formula_structural   CsCaY2Ni2BiB2SbO11F7
_chemical_formula_sum   'Cs1 Ca1 Y2 Ni2 Bi1 B2 Sb1 O11 F7'
_cell_volume   215.63391876
_cell_formula_units_Z   1
loop_
 _symmetry_equiv_pos_site_id
 _symmetry_equiv_pos_as_xyz
  1  'x, y, z'
loop_
 _atom_site_type_symbol
 _atom_site_label
 _atom_site_symmetry_multiplicity
 _atom_site_fract_x
 _atom_site_fract_y
 _atom_site_fract_z
 _atom_site_occupancy
  B  B0  1  0.63900751  0.78782821  0.16601741  1
  Y  Y1  1  0.95145905  0.03575053  0.68936408  1
  O  O2  1  0.48789793  0.91472185  0.31812185  1
  O  O3  1  0.31257460  0.37238595  0.02228460  1
  B  B4  1  0.17445332  0.29573965  0.23402363  1
  O  O5  1  0.58476007  0.29589444  0.62369287  1
  O  O6  1  0.02957476  0.16003259  0.28458989  1
  Bi  Bi7  1  0.54754061  0.64700103  0.71139014  1
  Ca  Ca8  1  0.64561200  0.23022918  0.27633688  1
  O  O9  1  0.80093515  0.85455370  0.53975415  1
  O  O10  1  0.19529714  0.36795819  0.40203023  1
  O  O11  1  0.84905452  0.83052707  0.06998205  1
  O  O12  1  0.54658395  0.64734322  0.12130630  1
  O  O13  1  0.88632160  0.33790836  0.85194564  1
  O  O14  1  0.19934000  0.66839516  0.61718047  1
  Ni  Ni15  1  0.23835701  0.32368356  0.74028182  1
  O  O16  1  0.26903144  0.97982800  0.83367485  1
  Y  Y17  1  0.14808133  0.78453541  0.24660188  1
  F  F18  1  0.45174009  0.27915350  0.90137154  1
  Cs  Cs19  1  0.92163962  0.03360561  0.07527182  1
  Sb  Sb20  1  0.18209654  0.65536231  0.50831711  1
  F  F21  1  0.93587220  0.00802437  0.57221174  1
  F  F22  1  0.94026434  0.52012384  0.37039450  1
  Ni  Ni23  1  0.68025827  0.40141135  0.64451122  1
  F  F24  1  0.39653686  0.77885318  0.23356387  1
  F  F25  1  0.39628968  0.73784494  0.69009244  1
  F  F26  1  0.92283052  0.52928644  0.77763689  1
  F  F27  1  0.45528397  0.31946543  0.46130759  1
