# generated using pymatgen
data_Mg4TiGaHg4
_symmetry_space_group_name_H-M   'P 1'
_cell_length_a   5.37216377
_cell_length_b   5.94553852
_cell_length_c   6.20947647
_cell_angle_alpha   106.59129333
_cell_angle_beta   83.30345917
_cell_angle_gamma   86.18852234
_symmetry_Int_Tables_number   1
_chemical_formula_structural   Mg4TiGaHg4
_chemical_formula_sum   'Mg4 Ti1 Ga1 Hg4'
_cell_volume   187.73908290
_cell_formula_units_Z   1
loop_
 _symmetry_equiv_pos_site_id
 _symmetry_equiv_pos_as_xyz
  1  'x, y, z'
loop_
 _atom_site_type_symbol
 _atom_site_label
 _atom_site_symmetry_multiplicity
 _atom_site_fract_x
 _atom_site_fract_y
 _atom_site_fract_z
 _atom_site_occupancy
  Mg  Mg0  1  0.01649343  0.37772298  0.08443075  1
  Mg  Mg1  1  0.51821715  0.13630806  0.34006682  1
  Mg  Mg2  1  0.51824433  0.63144207  0.84001899  1
  Hg  Hg3  1  0.51891857  0.13739006  0.83570337  1
  Mg  Mg4  1  0.01574259  0.88684458  0.59084272  1
  Hg  Hg5  1  0.01893643  0.88697582  0.09179199  1
  Hg  Hg6  1  0.02013597  0.38012472  0.58937544  1
  Hg  Hg7  1  0.51572365  0.63445300  0.34337020  1
  Ga  Ga8  1  0.24225576  0.26497003  0.26794532  1
  Ti  Ti9  1  0.74708384  0.76139188  0.76488638  1
