# generated using pymatgen
data_Th2ScAl2NiW2
_symmetry_space_group_name_H-M   'P 1'
_cell_length_a   4.82629442
_cell_length_b   4.82229710
_cell_length_c   5.53992605
_cell_angle_alpha   114.68315125
_cell_angle_beta   111.84608459
_cell_angle_gamma   92.14465332
_symmetry_Int_Tables_number   1
_chemical_formula_structural   Th2ScAl2NiW2
_chemical_formula_sum   'Th2 Sc1 Al2 Ni1 W2'
_cell_volume   105.86128633
_cell_formula_units_Z   1
loop_
 _symmetry_equiv_pos_site_id
 _symmetry_equiv_pos_as_xyz
  1  'x, y, z'
loop_
 _atom_site_type_symbol
 _atom_site_label
 _atom_site_symmetry_multiplicity
 _atom_site_fract_x
 _atom_site_fract_y
 _atom_site_fract_z
 _atom_site_occupancy
  W  W0  1  0.01336715  0.93203360  0.44710457  1
  Th  Th1  1  0.26748961  0.68445480  0.94851381  1
  Th  Th2  1  0.77157843  0.18151906  0.94902879  1
  W  W3  1  0.51744938  0.43414420  0.44921631  1
  Al  Al4  1  0.98361075  0.80774796  0.90334272  1
  Sc  Sc5  1  0.31956953  0.14174460  0.58521539  1
  Ni  Ni6  1  0.05656111  0.37501556  0.05269523  1
  Al  Al7  1  0.68211746  0.49702907  0.29139596  1
