# generated using pymatgen
data_Ca2GdFe2BiSbClO10
_symmetry_space_group_name_H-M   'P 1'
_cell_length_a   3.66198516
_cell_length_b   3.69233799
_cell_length_c   10.95696735
_cell_angle_alpha   90.19641876
_cell_angle_beta   90.04745483
_cell_angle_gamma   115.34140015
_symmetry_Int_Tables_number   1
_chemical_formula_structural   Ca2GdFe2BiSbClO10
_chemical_formula_sum   'Ca2 Gd1 Fe2 Bi1 Sb1 Cl1 O10'
_cell_volume   133.89490613
_cell_formula_units_Z   1
loop_
 _symmetry_equiv_pos_site_id
 _symmetry_equiv_pos_as_xyz
  1  'x, y, z'
loop_
 _atom_site_type_symbol
 _atom_site_label
 _atom_site_symmetry_multiplicity
 _atom_site_fract_x
 _atom_site_fract_y
 _atom_site_fract_z
 _atom_site_occupancy
  O  O0  1  0.35085559  0.08083405  0.84543210  1
  Bi  Bi1  1  0.01089410  0.42083669  0.79282480  1
  O  O2  1  0.33848006  0.09480691  0.33303514  1
  Gd  Gd3  1  0.34268507  0.08819092  0.07251540  1
  Cl  Cl4  1  0.68171585  0.75509953  0.59812206  1
  O  O5  1  0.99747324  0.41964111  0.00219512  1
  O  O6  1  0.66775501  0.75780445  0.16727185  1
  Sb  Sb7  1  0.66721678  0.75163198  0.34342068  1
  Ca  Ca8  1  0.74121046  0.17360498  0.66707647  1
  O  O9  1  0.08130316  0.91312003  0.93924868  1
  O  O10  1  0.53532332  0.10054721  0.25664681  1
  Fe  Fe11  1  0.25669998  0.60967648  0.74955511  1
  O  O12  1  0.07354006  0.40914065  0.43667734  1
  Ca  Ca13  1  0.75396436  0.68700433  0.18844309  1
  O  O14  1  0.56127745  0.73821336  0.60383976  1
  O  O15  1  0.46480325  0.42760396  0.93329304  1
  O  O16  1  0.02189461  0.41410500  0.95446748  1
  Fe  Fe17  1  0.24303028  0.23457259  0.12644920  1
