# generated using pymatgen
data_Ba2Ca4LaIn2CoCuBi3(Cl3O7)2
_symmetry_space_group_name_H-M   'P 1'
_cell_length_a   6.26505280
_cell_length_b   6.33419895
_cell_length_c   10.35159302
_cell_angle_alpha   90.30390930
_cell_angle_beta   89.33084869
_cell_angle_gamma   93.45241547
_symmetry_Int_Tables_number   1
_chemical_formula_structural   Ba2Ca4LaIn2CoCuBi3(Cl3O7)2
_chemical_formula_sum   'Ba2 Ca4 La1 In2 Co1 Cu1 Bi3 Cl6 O14'
_cell_volume   410.01571088
_cell_formula_units_Z   1
loop_
 _symmetry_equiv_pos_site_id
 _symmetry_equiv_pos_as_xyz
  1  'x, y, z'
loop_
 _atom_site_type_symbol
 _atom_site_label
 _atom_site_symmetry_multiplicity
 _atom_site_fract_x
 _atom_site_fract_y
 _atom_site_fract_z
 _atom_site_occupancy
  Bi  Bi0  1  0.93611908  0.72584903  0.85190386  1
  O  O1  1  0.64703810  0.06639372  0.39932096  1
  Cl  Cl2  1  0.37360957  0.85322398  0.95934802  1
  O  O3  1  0.48872182  0.17993344  0.68101144  1
  O  O4  1  0.48894191  0.67292356  0.47544965  1
  O  O5  1  0.98438418  0.41593432  0.46580923  1
  O  O6  1  0.66734570  0.56286466  0.74684083  1
  Cl  Cl7  1  0.37924799  0.35726452  0.19022784  1
  O  O8  1  0.99816871  0.90939218  0.67816740  1
  Ca  Ca9  1  0.39043397  0.82491297  0.67093074  1
  Ca  Ca10  1  0.37757266  0.32427663  0.48247463  1
  La  La11  1  0.89305669  0.23952806  0.26294830  1
  Bi  Bi12  1  0.40554646  0.85615426  0.29928109  1
  O  O13  1  0.16343334  0.51251304  0.74622089  1
  Cl  Cl14  1  0.87881798  0.72156632  0.19311172  1
  O  O15  1  0.15400887  0.01745106  0.39877746  1
  Ca  Ca16  1  0.88483506  0.75619221  0.47827902  1
  Bi  Bi17  1  0.43763453  0.35105497  0.85396415  1
  Cl  Cl18  1  0.88766849  0.21452267  0.96057409  1
  Ca  Ca19  1  0.89121437  0.25875676  0.66133022  1
  Ba  Ba20  1  0.12505724  0.81594986  0.44075471  1
  O  O21  1  0.80474597  0.74652946  0.19229487  1
  Co  Co22  1  0.62340432  0.82857460  0.44376880  1
  In  In23  1  0.42897210  0.29428226  0.25849986  1
  O  O24  1  0.74794602  0.93221354  0.65919757  1
  O  O25  1  0.43980750  0.05487726  0.43276504  1
  Cu  Cu26  1  0.94381332  0.43940592  0.05913107  1
  O  O27  1  0.49399009  0.58508974  0.47414750  1
  O  O28  1  0.70967579  0.24404123  0.07109663  1
  Cl  Cl29  1  0.98411691  0.41678995  0.66758537  1
  Cl  Cl30  1  0.24441390  0.91797960  0.92677236  1
  O  O31  1  0.22549722  0.46123600  0.12451725  1
  Ba  Ba32  1  0.48076859  0.37212065  0.77725768  1
  In  In33  1  0.82335436  0.91864049  0.95844829  1
