# generated using pymatgen
data_La2YbZnInAg
_symmetry_space_group_name_H-M   'P 1'
_cell_length_a   5.29642916
_cell_length_b   6.61917400
_cell_length_c   6.68469286
_cell_angle_alpha   101.02291870
_cell_angle_beta   87.89715576
_cell_angle_gamma   91.58647919
_symmetry_Int_Tables_number   1
_chemical_formula_structural   La2YbZnInAg
_chemical_formula_sum   'La4 Yb2 Zn2 In2 Ag2'
_cell_volume   229.82230968
_cell_formula_units_Z   2
loop_
 _symmetry_equiv_pos_site_id
 _symmetry_equiv_pos_as_xyz
  1  'x, y, z'
loop_
 _atom_site_type_symbol
 _atom_site_label
 _atom_site_symmetry_multiplicity
 _atom_site_fract_x
 _atom_site_fract_y
 _atom_site_fract_z
 _atom_site_occupancy
  La  La0  1  0.18757313  0.00744199  0.87200248  1
  Ag  Ag1  1  0.68902969  0.25081342  0.11661346  1
  In  In2  1  0.68737096  0.75640559  0.61273813  1
  Ag  Ag3  1  0.18681166  0.50641102  0.86358672  1
  In  In4  1  0.19249976  0.00552930  0.36824143  1
  La  La5  1  0.18828487  0.50249505  0.35977682  1
  La  La6  1  0.68867677  0.25696447  0.61714411  1
  La  La7  1  0.68743342  0.75180566  0.11543886  1
  Yb  Yb8  1  0.24210919  0.41529930  0.40459743  1
  Zn  Zn9  1  0.73326463  0.91341567  0.39904273  1
  Yb  Yb10  1  0.73436058  0.41513202  0.90183562  1
  Zn  Zn11  1  0.24160546  0.91685784  0.90325183  1
