# generated using pymatgen
data_RbLiCaHClO2
_symmetry_space_group_name_H-M   'P 1'
_cell_length_a   5.20420122
_cell_length_b   5.13197994
_cell_length_c   5.38474035
_cell_angle_alpha   98.03495789
_cell_angle_beta   98.48509979
_cell_angle_gamma   92.91398621
_symmetry_Int_Tables_number   1
_chemical_formula_structural   RbLiCaHClO2
_chemical_formula_sum   'Rb4 Li4 Ca4 H4 Cl4 O8'
_cell_volume   140.46887641
_cell_formula_units_Z   4
loop_
 _symmetry_equiv_pos_site_id
 _symmetry_equiv_pos_as_xyz
  1  'x, y, z'
loop_
 _atom_site_type_symbol
 _atom_site_label
 _atom_site_symmetry_multiplicity
 _atom_site_fract_x
 _atom_site_fract_y
 _atom_site_fract_z
 _atom_site_occupancy
  O  O0  1  0.68584341  0.18005627  0.36165887  1
  O  O1  1  0.68399614  0.68786436  0.86572832  1
  Ca  Ca2  1  0.68224418  0.18611531  0.86380619  1
  Ca  Ca3  1  0.18694472  0.18528438  0.35512406  1
  Ca  Ca4  1  0.18601882  0.68118066  0.86741042  1
  Ca  Ca5  1  0.68427610  0.68775511  0.36346576  1
  O  O6  1  0.18587255  0.18441272  0.86222398  1
  O  O7  1  0.18500118  0.68456089  0.35904431  1
  O  O8  1  0.41245428  0.01858059  0.30281961  1
  O  O9  1  0.79116005  0.75469899  0.40433666  1
  Rb  Rb10  1  0.88339186  0.51814252  0.65110499  1
  Rb  Rb11  1  0.15744922  0.70725948  0.21368966  1
  Li  Li12  1  0.54431206  0.21679682  0.45741457  1
  Cl  Cl13  1  0.88841450  0.19471544  0.33459172  1
  Cl  Cl14  1  0.15437521  0.32360634  0.96108443  1
  H  H15  1  0.38902178  0.97447294  0.41272634  1
  O  O16  1  0.41373137  0.40953901  0.34735745  1
  Cl  Cl17  1  0.31471586  0.74351293  0.63734484  1
  H  H18  1  0.65838450  0.70245945  0.40755984  1
  Rb  Rb19  1  0.65146536  0.38068193  0.05915741  1
  Li  Li20  1  0.68624598  0.92762554  0.24074356  1
  Li  Li21  1  0.23604651  0.21996970  0.24284041  1
  Rb  Rb22  1  0.96886903  0.02366843  0.66835058  1
  O  O23  1  0.56615686  0.21865360  0.71289980  1
  H  H24  1  0.42929590  0.26436576  0.74049723  1
  Cl  Cl25  1  0.74986714  0.81342608  0.94599372  1
  H  H26  1  0.38045344  0.48098710  0.45872808  1
  Li  Li27  1  0.52141654  0.97371507  0.76371795  1
