# generated using pymatgen
data_Cr5Cu2SiNi2PWO20
_symmetry_space_group_name_H-M   'P 1'
_cell_length_a   5.25411892
_cell_length_b   5.28929996
_cell_length_c   7.02233839
_cell_angle_alpha   107.95519257
_cell_angle_beta   109.74105835
_cell_angle_gamma   93.27864075
_symmetry_Int_Tables_number   1
_chemical_formula_structural   Cr5Cu2SiNi2PWO20
_chemical_formula_sum   'Cr5 Cu2 Si1 Ni2 P1 W1 O20'
_cell_volume   171.88033885
_cell_formula_units_Z   1
loop_
 _symmetry_equiv_pos_site_id
 _symmetry_equiv_pos_as_xyz
  1  'x, y, z'
loop_
 _atom_site_type_symbol
 _atom_site_label
 _atom_site_symmetry_multiplicity
 _atom_site_fract_x
 _atom_site_fract_y
 _atom_site_fract_z
 _atom_site_occupancy
  O  O0  1  0.35629454  0.54809988  0.59397125  1
  O  O1  1  0.45577273  0.13155301  0.77889812  1
  W  W2  1  0.10642925  0.79215682  0.59054613  1
  Cu  Cu3  1  0.60634828  0.29509720  0.59242034  1
  O  O4  1  0.02596127  0.74122894  0.87152278  1
  P  P5  1  0.21439832  0.70132977  0.09375065  1
  O  O6  1  0.52818465  0.81607515  0.11188158  1
  O  O7  1  0.09981401  0.38141233  0.07424733  1
  O  O8  1  0.16484231  0.88717401  0.31458935  1
  Cu  Cu9  1  0.70244187  0.21625856  0.09447499  1
  O  O10  1  0.85997421  0.04451302  0.59605831  1
  O  O11  1  0.76307005  0.45674321  0.40565252  1
  Cr  Cr12  1  0.88061440  0.64952070  0.65510094  1
  O  O13  1  0.38298646  0.00138426  0.74828160  1
  O  O14  1  0.12279014  0.49881560  0.75127542  1
  Si  Si15  1  0.60971153  0.15642995  0.66251194  1
  O  O16  1  0.60535717  0.81939566  0.08677021  1
  O  O17  1  0.84202254  0.01580961  0.72848040  1
  Cr  Cr18  1  0.36430451  0.99897325  0.24779198  1
  O  O19  1  0.61932397  0.15820292  0.41503790  1
  Ni  Ni20  1  0.12169751  0.49950284  0.24678560  1
  Cr  Cr21  1  0.37167034  0.66407394  0.89590991  1
  O  O22  1  0.37352282  0.34350118  0.08268091  1
  O  O23  1  0.61999148  0.46587360  0.73340988  1
  Ni  Ni24  1  0.10932892  0.16784590  0.88756794  1
  O  O25  1  0.89094824  0.31578094  0.10091187  1
  O  O26  1  0.13773653  0.84490252  0.07232259  1
  O  O27  1  0.36316082  0.66065794  0.37457633  1
  O  O28  1  0.86624008  0.67346722  0.39056093  1
  O  O29  1  0.11831713  0.15473945  0.38161540  1
  Cr  Cr30  1  0.61844754  0.49723402  0.24085291  1
  Cr  Cr31  1  0.86985409  0.99359590  0.23672053  1
