# generated using pymatgen
data_KLiCe2Al4TlCdCu3B2HW2(SO)10
_symmetry_space_group_name_H-M   'P 1'
_cell_length_a   6.19142723
_cell_length_b   7.73716402
_cell_length_c   7.93883038
_cell_angle_alpha   98.40173340
_cell_angle_beta   90.48878479
_cell_angle_gamma   90.24452972
_symmetry_Int_Tables_number   1
_chemical_formula_structural   KLiCe2Al4TlCdCu3B2HW2(SO)10
_chemical_formula_sum   'K1 Li1 Ce2 Al4 Tl1 Cd1 Cu3 B2 H1 W2 S10 O10'
_cell_volume   376.20145532
_cell_formula_units_Z   1
loop_
 _symmetry_equiv_pos_site_id
 _symmetry_equiv_pos_as_xyz
  1  'x, y, z'
loop_
 _atom_site_type_symbol
 _atom_site_label
 _atom_site_symmetry_multiplicity
 _atom_site_fract_x
 _atom_site_fract_y
 _atom_site_fract_z
 _atom_site_occupancy
  Ce  Ce0  1  0.00733244  0.67783129  0.62071484  1
  S  S1  1  0.63608211  0.97212356  0.31875324  1
  Al  Al2  1  0.92663890  0.89342773  0.15808281  1
  Al  Al3  1  0.99893749  0.42331931  0.18947168  1
  S  S4  1  0.50950521  0.64279193  0.61355358  1
  S  S5  1  0.75782865  0.79635757  0.91404378  1
  S  S6  1  0.01505939  0.35078117  0.46416640  1
  Cu  Cu7  1  0.92868882  0.06146797  0.47295490  1
  S  S8  1  0.65592647  0.19328590  0.79929018  1
  S  S9  1  0.62183839  0.44063970  0.20306194  1
  Al  Al10  1  0.02265064  0.18710740  0.85223335  1
  Cu  Cu11  1  0.49712810  0.69759935  0.34218937  1
  Ce  Ce12  1  0.47684291  0.28142405  0.50098526  1
  S  S13  1  0.10609501  0.45893583  0.89806563  1
  S  S14  1  0.12814280  0.13609837  0.10062364  1
  Cd  Cd15  1  0.53499413  0.51416367  0.91228789  1
  Li  Li16  1  0.52929521  0.14258417  0.09063642  1
  S  S17  1  0.12167216  0.69620514  0.27705577  1
  Cu  Cu18  1  0.52645963  0.91493195  0.74330258  1
  S  S19  1  0.19968292  0.01222914  0.64735889  1
  K  K20  1  0.16638072  0.67583400  0.60036868  1
  O  O21  1  0.20016441  0.05417394  0.28795409  1
  O  O22  1  0.22240485  0.42630789  0.98843426  1
  W  W23  1  0.50584531  0.14953662  0.39153051  1
  Tl  Tl24  1  0.80582911  0.68652439  0.13835374  1
  W  W25  1  0.25693199  0.10624978  0.99208033  1
  O  O26  1  0.40672201  0.48642805  0.27170399  1
  O  O27  1  0.58191645  0.13204181  0.06492449  1
  B  B28  1  0.66907775  0.67312062  0.64143360  1
  H  H29  1  0.94021618  0.17804669  0.41727090  1
  B  B30  1  0.31914040  0.56190252  0.09007294  1
  O  O31  1  0.44063032  0.18100233  0.71577328  1
  Al  Al32  1  0.72492188  0.22301465  0.79657358  1
  O  O33  1  0.74685061  0.53100300  0.77096736  1
  O  O34  1  0.99278158  0.10940569  0.88431406  1
  O  O35  1  0.33111677  0.79540128  0.98977560  1
  O  O36  1  0.80730426  0.22162460  0.49645230  1
  O  O37  1  0.58557630  0.81518257  0.50845015  1
