# generated using pymatgen
data_La2Ce3ScCu2(PdS3)4
_symmetry_space_group_name_H-M   'P 1'
_cell_length_a   4.66871738
_cell_length_b   4.70423794
_cell_length_c   8.46881580
_cell_angle_alpha   101.54847717
_cell_angle_beta   104.09088135
_cell_angle_gamma   90.12653351
_symmetry_Int_Tables_number   1
_chemical_formula_structural   La2Ce3ScCu2(PdS3)4
_chemical_formula_sum   'La2 Ce3 Sc1 Cu2 Pd4 S12'
_cell_volume   176.49566035
_cell_formula_units_Z   1
loop_
 _symmetry_equiv_pos_site_id
 _symmetry_equiv_pos_as_xyz
  1  'x, y, z'
loop_
 _atom_site_type_symbol
 _atom_site_label
 _atom_site_symmetry_multiplicity
 _atom_site_fract_x
 _atom_site_fract_y
 _atom_site_fract_z
 _atom_site_occupancy
  S  S0  1  0.01951062  0.79343152  0.86743456  1
  S  S1  1  0.39078462  0.16807014  0.61393929  1
  Cu  Cu2  1  0.20780835  0.98811519  0.24236855  1
  La  La3  1  0.83205003  0.60062295  0.48507488  1
  La  La4  1  0.58510357  0.37219346  0.99730539  1
  Cu  Cu5  1  0.96606481  0.22601344  0.74317259  1
  S  S6  1  0.70862132  0.98276931  0.24188523  1
  S  S7  1  0.20490049  0.48106068  0.24137530  1
  Pd  Pd8  1  0.47810346  0.96546334  0.36185595  1
  Ce  Ce9  1  0.98102587  0.97014201  0.98725557  1
  Ce  Ce10  1  0.97992706  0.97001308  0.48298153  1
  S  S11  1  0.67215365  0.66445100  0.47114226  1
  S  S12  1  0.17640127  0.76425469  0.73894781  1
  S  S13  1  0.77805239  0.16984129  0.73549449  1
  Sc  Sc14  1  0.47607440  0.46714309  0.23853573  1
  S  S15  1  0.19239657  0.75864220  0.23430924  1
  S  S16  1  0.28565773  0.27524191  0.00014782  1
  Pd  Pd17  1  0.47717637  0.96977192  0.86683506  1
  Ce  Ce18  1  0.47911003  0.47177106  0.74261761  1
  S  S19  1  0.67546779  0.66130584  0.99916142  1
  S  S20  1  0.75878435  0.17593594  0.23358168  1
  Pd  Pd21  1  0.97655910  0.47160980  0.35344851  1
  S  S22  1  0.28555673  0.27181476  0.47071218  1
  Pd  Pd23  1  0.97978151  0.46553671  0.86848557  1
