# generated using pymatgen
data_Ac2Fe(SnI)2
_symmetry_space_group_name_H-M   'P 1'
_cell_length_a   5.03573036
_cell_length_b   5.04762220
_cell_length_c   9.93278313
_cell_angle_alpha   87.40946198
_cell_angle_beta   88.78437805
_cell_angle_gamma   104.77601624
_symmetry_Int_Tables_number   1
_chemical_formula_structural   Ac2Fe(SnI)2
_chemical_formula_sum   'Ac4 Fe2 Sn4 I4'
_cell_volume   243.73713540
_cell_formula_units_Z   2
loop_
 _symmetry_equiv_pos_site_id
 _symmetry_equiv_pos_as_xyz
  1  'x, y, z'
loop_
 _atom_site_type_symbol
 _atom_site_label
 _atom_site_symmetry_multiplicity
 _atom_site_fract_x
 _atom_site_fract_y
 _atom_site_fract_z
 _atom_site_occupancy
  I  I0  1  0.71844530  0.62699687  0.69668162  1
  I  I1  1  0.03541707  0.92877704  0.44473657  1
  I  I2  1  0.71423417  0.62458074  0.19804695  1
  I  I3  1  0.40706936  0.31449994  0.95169324  1
  Sn  Sn4  1  0.58376342  0.37820807  0.22236170  1
  Ac  Ac5  1  0.15248723  0.74242514  0.59385526  1
  Ac  Ac6  1  0.63955998  0.86159599  0.22851208  1
  Sn  Sn7  1  0.20946307  0.64845312  0.07408253  1
  Ac  Ac8  1  0.64217860  0.28101063  0.69951600  1
  Ac  Ac9  1  0.14882176  0.16456392  0.07010714  1
  Sn  Sn10  1  0.19451216  0.23929179  0.55340564  1
  Fe  Fe11  1  0.87948799  0.51819044  0.39596963  1
  Fe  Fe12  1  0.91126931  0.50721723  0.89554238  1
  Sn  Sn13  1  0.60016781  0.77682245  0.73445302  1
