# generated using pymatgen
data_Er3U2AsPd2Pt3Se4
_symmetry_space_group_name_H-M   'P 1'
_cell_length_a   3.79442024
_cell_length_b   4.43447781
_cell_length_c   8.69784832
_cell_angle_alpha   95.33432007
_cell_angle_beta   93.19828033
_cell_angle_gamma   95.51022339
_symmetry_Int_Tables_number   1
_chemical_formula_structural   Er3U2AsPd2Pt3Se4
_chemical_formula_sum   'Er3 U2 As1 Pd2 Pt3 Se4'
_cell_volume   144.73559644
_cell_formula_units_Z   1
loop_
 _symmetry_equiv_pos_site_id
 _symmetry_equiv_pos_as_xyz
  1  'x, y, z'
loop_
 _atom_site_type_symbol
 _atom_site_label
 _atom_site_symmetry_multiplicity
 _atom_site_fract_x
 _atom_site_fract_y
 _atom_site_fract_z
 _atom_site_occupancy
  As  As0  1  0.86505514  0.12675542  0.22151002  1
  Pt  Pt1  1  0.36319935  0.12269338  0.39578986  1
  Er  Er2  1  0.35537702  0.12036354  0.71937388  1
  Er  Er3  1  0.87412405  0.63314795  0.46448070  1
  Er  Er4  1  0.37110078  0.62749016  0.08199281  1
  Pt  Pt5  1  0.84947801  0.61875808  0.77971423  1
  Pt  Pt6  1  0.85988885  0.12306667  0.96934760  1
  Se  Se7  1  0.00739710  0.30774614  0.81144202  1
  Se  Se8  1  0.51274872  0.80553943  0.80727845  1
  Pd  Pd9  1  0.51599163  0.80709863  0.30578643  1
  Se  Se10  1  0.01176192  0.80139554  0.30552790  1
  Pd  Pd11  1  0.51482892  0.30396938  0.81051767  1
  U  U12  1  0.01005079  0.30283532  0.30922821  1
  U  U13  1  0.01156540  0.80307949  0.81131923  1
  Se  Se14  1  0.51188862  0.30396917  0.30811280  1
