# generated using pymatgen
data_BaLa2YTi2AlFe2B(AsO9)2
_symmetry_space_group_name_H-M   'P 1'
_cell_length_a   3.42669821
_cell_length_b   3.53700209
_cell_length_c   9.47974491
_cell_angle_alpha   89.22559357
_cell_angle_beta   87.06309509
_cell_angle_gamma   92.09896088
_symmetry_Int_Tables_number   1
_chemical_formula_structural   BaLa2YTi2AlFe2B(AsO9)2
_chemical_formula_sum   'Ba1 La2 Y1 Ti2 Al1 Fe2 B1 As2 O18'
_cell_volume   114.65523540
_cell_formula_units_Z   1
loop_
 _symmetry_equiv_pos_site_id
 _symmetry_equiv_pos_as_xyz
  1  'x, y, z'
loop_
 _atom_site_type_symbol
 _atom_site_label
 _atom_site_symmetry_multiplicity
 _atom_site_fract_x
 _atom_site_fract_y
 _atom_site_fract_z
 _atom_site_occupancy
  Fe  Fe0  1  0.90621263  0.96022272  0.97437853  1
  O  O1  1  0.85663790  0.45258051  0.07800043  1
  O  O2  1  0.30467182  0.95602494  0.21488023  1
  Ti  Ti3  1  0.30904737  0.45187247  0.19866207  1
  O  O4  1  0.11964720  0.95547545  0.51286036  1
  O  O5  1  0.98265314  0.45553160  0.78977132  1
  O  O6  1  0.43085453  0.95809841  0.89322680  1
  O  O7  1  0.73597640  0.45582789  0.34050125  1
  Fe  Fe8  1  0.69044358  0.95736265  0.38335392  1
  O  O9  1  0.55830109  0.45756891  0.63150704  1
  Ti  Ti10  1  0.08514498  0.45339936  0.58804619  1
  Al  Al11  1  0.47467509  0.46367970  0.81116241  1
  La  La12  1  0.36347577  0.14059176  0.30688602  1
  O  O13  1  0.39248076  0.91178995  0.47846407  1
  O  O14  1  0.96651334  0.12729618  0.07501353  1
  O  O15  1  0.85983241  0.65495616  0.43455812  1
  O  O16  1  0.56458718  0.84840041  0.10856757  1
  O  O17  1  0.91914213  0.74771863  0.82630646  1
  O  O18  1  0.46829051  0.02365981  0.82746983  1
  O  O19  1  0.90172994  0.17388709  0.43803239  1
  As  As20  1  0.45923936  0.64331037  0.40783703  1
  O  O21  1  0.68254173  0.30584297  0.77582735  1
  La  La22  1  0.94622517  0.98784709  0.62591147  1
  O  O23  1  0.20172401  0.30672982  0.78002322  1
  B  B24  1  0.45411754  0.22917435  0.80289847  1
  As  As25  1  0.73393035  0.93404669  0.96638656  1
  Ba  Ba26  1  0.93675345  0.51368707  0.07503302  1
  O  O27  1  0.40212941  0.48330104  0.53288937  1
  Y  Y28  1  0.92511201  0.46165112  0.61852151  1
  O  O29  1  0.41847876  0.45209545  0.21825016  1
