# generated using pymatgen
data_K2LiDyMn3BeAl2CdSiP2H2(O10F)2
_symmetry_space_group_name_H-M   'P 1'
_cell_length_a   5.99205780
_cell_length_b   6.00099325
_cell_length_c   8.20980263
_cell_angle_alpha   82.43741608
_cell_angle_beta   84.53838348
_cell_angle_gamma   71.47503662
_symmetry_Int_Tables_number   1
_chemical_formula_structural   K2LiDyMn3BeAl2CdSiP2H2(O10F)2
_chemical_formula_sum   'K2 Li1 Dy1 Mn3 Be1 Al2 Cd1 Si1 P2 H2 O20 F2'
_cell_volume   277.03194897
_cell_formula_units_Z   1
loop_
 _symmetry_equiv_pos_site_id
 _symmetry_equiv_pos_as_xyz
  1  'x, y, z'
loop_
 _atom_site_type_symbol
 _atom_site_label
 _atom_site_symmetry_multiplicity
 _atom_site_fract_x
 _atom_site_fract_y
 _atom_site_fract_z
 _atom_site_occupancy
  Cd  Cd0  1  0.57359940  0.65568900  0.53015709  1
  O  O1  1  0.77060139  0.83415610  0.75737154  1
  O  O2  1  0.71744996  0.33470014  0.68393213  1
  K  K3  1  0.58224756  0.65672231  0.03360172  1
  O  O4  1  0.15989864  0.77631402  0.55050814  1
  O  O5  1  0.20422046  0.39677799  0.74732226  1
  O  O6  1  0.39968777  0.46234459  0.29351875  1
  F  F7  1  0.05733880  0.68536425  0.00702625  1
  Al  Al8  1  0.50968289  0.14902359  0.28318632  1
  Mn  Mn9  1  0.50363511  0.13524222  0.75047320  1
  O  O10  1  0.82688099  0.02460527  0.29377532  1
  Al  Al11  1  0.09380686  0.71874326  0.76408142  1
  O  O12  1  0.89524460  0.51067752  0.35607001  1
  K  K13  1  0.01262859  0.21515048  0.01145312  1
  Mn  Mn14  1  0.09784897  0.72462797  0.29145014  1
  Dy  Dy15  1  0.04622865  0.17839779  0.52782035  1
  O  O16  1  0.44774655  0.07453592  0.49443564  1
  O  O17  1  0.30679128  0.96586812  0.24615507  1
  O  O18  1  0.26828358  0.92089182  0.80024493  1
  F  F19  1  0.54736054  0.19271550  0.03599131  1
  Li  Li20  1  0.11230676  0.25843352  0.83405304  1
  Mn  Mn21  1  0.63507313  0.60837197  0.01012455  1
  H  H22  1  0.44288394  0.05499608  0.52079868  1
  O  O23  1  0.25643334  0.13703357  0.23868483  1
  O  O24  1  0.94612414  0.81165153  0.16441777  1
  O  O25  1  0.38243890  0.83063811  0.89901340  1
  O  O26  1  0.75970018  0.76109672  0.60087025  1
  P  P27  1  0.60200328  0.93336976  0.77975237  1
  P  P28  1  0.36166111  0.35697839  0.27238646  1
  O  O29  1  0.85943127  0.05567130  0.92715859  1
  O  O30  1  0.67893732  0.37118286  0.36351362  1
  O  O31  1  0.41107720  0.07008523  0.66779619  1
  H  H32  1  0.94645387  0.85058111  0.31821322  1
  O  O33  1  0.88390577  0.45060304  0.75258982  1
  O  O34  1  0.35147607  0.40929204  0.07270418  1
  Be  Be35  1  0.09862749  0.96353567  0.05913135  1
  Si  Si36  1  0.87494636  0.51661223  0.55524552  1
  O  O37  1  0.18893078  0.52358049  0.44947237  1
