# generated using pymatgen
data_CaLaCu2SnMo2PO15
_symmetry_space_group_name_H-M   'P 1'
_cell_length_a   5.15955162
_cell_length_b   5.39458561
_cell_length_c   6.78673840
_cell_angle_alpha   101.20407867
_cell_angle_beta   107.71824646
_cell_angle_gamma   93.03099823
_symmetry_Int_Tables_number   1
_chemical_formula_structural   CaLaCu2SnMo2PO15
_chemical_formula_sum   'Ca1 La1 Cu2 Sn1 Mo2 P1 O15'
_cell_volume   175.23696359
_cell_formula_units_Z   1
loop_
 _symmetry_equiv_pos_site_id
 _symmetry_equiv_pos_as_xyz
  1  'x, y, z'
loop_
 _atom_site_type_symbol
 _atom_site_label
 _atom_site_symmetry_multiplicity
 _atom_site_fract_x
 _atom_site_fract_y
 _atom_site_fract_z
 _atom_site_occupancy
  Mo  Mo0  1  0.30773345  0.66437089  0.34646815  1
  Cu  Cu1  1  0.76800895  0.02928390  0.75558472  1
  O  O2  1  0.30322015  0.59638882  0.02512147  1
  O  O3  1  0.01681372  0.37802345  0.25758699  1
  O  O4  1  0.88557076  0.71449494  0.80836964  1
  Mo  Mo5  1  0.78320837  0.15702009  0.28947243  1
  P  P6  1  0.10540876  0.56788325  0.79401630  1
  O  O7  1  0.55522442  0.90952724  0.43050832  1
  O  O8  1  0.60657543  0.09272172  0.00977157  1
  O  O9  1  0.54382360  0.39745262  0.37572739  1
  O  O10  1  0.99853110  0.28555879  0.69372034  1
  O  O11  1  0.01063017  0.88977069  0.31276000  1
  O  O12  1  0.26967391  0.66813427  0.64651161  1
  O  O13  1  0.51692915  0.60333842  0.46579856  1
  Cu  Cu14  1  0.27911043  0.74693906  0.62928009  1
  Ca  Ca15  1  0.78025699  0.56408638  0.81164980  1
  O  O16  1  0.04423141  0.92190528  0.78708863  1
  O  O17  1  0.01780152  0.30697301  0.51966983  1
  O  O18  1  0.53706741  0.86707270  0.06424236  1
  La  La19  1  0.26710415  0.13395578  0.24622127  1
  Sn  Sn20  1  0.77998000  0.93062216  0.44807544  1
  O  O21  1  0.56475532  0.13176858  0.62667269  1
  O  O22  1  0.98631918  0.74756396  0.25171441  1
