# generated using pymatgen
data_Ba2ThPt5(Se2S)4
_symmetry_space_group_name_H-M   'P 1'
_cell_length_a   5.05433559
_cell_length_b   5.57268333
_cell_length_c   14.56179333
_cell_angle_alpha   91.71452332
_cell_angle_beta   86.88374329
_cell_angle_gamma   83.75814819
_symmetry_Int_Tables_number   1
_chemical_formula_structural   Ba2ThPt5(Se2S)4
_chemical_formula_sum   'Ba2 Th1 Pt5 Se8 S4'
_cell_volume   406.85087949
_cell_formula_units_Z   1
loop_
 _symmetry_equiv_pos_site_id
 _symmetry_equiv_pos_as_xyz
  1  'x, y, z'
loop_
 _atom_site_type_symbol
 _atom_site_label
 _atom_site_symmetry_multiplicity
 _atom_site_fract_x
 _atom_site_fract_y
 _atom_site_fract_z
 _atom_site_occupancy
  Th  Th0  1  0.09206438  0.20089549  0.24637459  1
  Se  Se1  1  0.09862311  0.19834052  0.56641066  1
  Se  Se2  1  0.08937593  0.70873928  0.12890638  1
  Se  Se3  1  0.60190749  0.20459311  0.74125856  1
  Se  Se4  1  0.60196441  0.21025513  0.11871461  1
  Ba  Ba5  1  0.59316534  0.70705068  0.92462164  1
  Se  Se6  1  0.10101994  0.69604361  0.74050421  1
  Se  Se7  1  0.59308773  0.19460313  0.36904886  1
  Se  Se8  1  0.09754080  0.20822230  0.91817266  1
  Ba  Ba9  1  0.60564566  0.69902796  0.55775213  1
  Pt  Pt10  1  0.10502326  0.19346130  0.74185854  1
  Se  Se11  1  0.10140201  0.69840068  0.36359760  1
  Pt  Pt12  1  0.55754453  0.41351333  0.87909657  1
  S  S13  1  0.82814777  0.66563433  0.12318829  1
  Pt  Pt14  1  0.54257035  0.92603117  0.38497564  1
  S  S15  1  0.33286279  0.16356805  0.12278553  1
  S  S16  1  0.83390230  0.16805595  0.62756979  1
  S  S17  1  0.33202949  0.66824335  0.62542504  1
  Pt  Pt18  1  0.05443807  0.41293240  0.37409663  1
  Pt  Pt19  1  0.04020626  0.91195273  0.87750536  1
