# generated using pymatgen
data_YbSmDyInGaCuGe4(PtS)5
_symmetry_space_group_name_H-M   'P 1'
_cell_length_a   3.53539681
_cell_length_b   5.59778547
_cell_length_c   8.72296047
_cell_angle_alpha   99.58368683
_cell_angle_beta   95.62093353
_cell_angle_gamma   91.33528137
_symmetry_Int_Tables_number   1
_chemical_formula_structural   YbSmDyInGaCuGe4(PtS)5
_chemical_formula_sum   'Yb1 Sm1 Dy1 In1 Ga1 Cu1 Ge4 Pt5 S5'
_cell_volume   169.26494998
_cell_formula_units_Z   1
loop_
 _symmetry_equiv_pos_site_id
 _symmetry_equiv_pos_as_xyz
  1  'x, y, z'
loop_
 _atom_site_type_symbol
 _atom_site_label
 _atom_site_symmetry_multiplicity
 _atom_site_fract_x
 _atom_site_fract_y
 _atom_site_fract_z
 _atom_site_occupancy
  S  S0  1  0.84131330  0.32746929  0.55183595  1
  In  In1  1  0.80829567  0.91324097  0.04820240  1
  S  S2  1  0.33500421  0.77213770  0.37859321  1
  Pt  Pt3  1  0.85522336  0.91434628  0.56428528  1
  S  S4  1  0.83904654  0.42899826  0.01433036  1
  Cu  Cu5  1  0.83784509  0.45321807  0.29973841  1
  S  S6  1  0.32270646  0.05483444  0.23178248  1
  S  S7  1  0.37032720  0.87418234  0.75384700  1
  Dy  Dy8  1  0.34823844  0.38265780  0.78184533  1
  Ga  Ga9  1  0.16178091  0.87837094  0.39676297  1
  Pt  Pt10  1  0.14922248  0.43960601  0.51266378  1
  Ge  Ge11  1  0.66055542  0.16373067  0.95188051  1
  Sm  Sm12  1  0.15453415  0.60938388  0.84583384  1
  Ge  Ge13  1  0.16157350  0.77752811  0.18369699  1
  Ge  Ge14  1  0.65141618  0.49315655  0.61719519  1
  Pt  Pt15  1  0.16022000  0.22893795  0.06776554  1
  Pt  Pt16  1  0.65752029  0.05241276  0.74168044  1
  Ge  Ge17  1  0.15268329  0.00340517  0.63123393  1
  Pt  Pt18  1  0.65785092  0.72364843  0.06835219  1
  Yb  Yb19  1  0.65723616  0.32788336  0.29517442  1
