# generated using pymatgen
data_K2RbBaNaLi2V3Bi(PO7)3
_symmetry_space_group_name_H-M   'P 1'
_cell_length_a   5.86963749
_cell_length_b   7.74620152
_cell_length_c   8.44402790
_cell_angle_alpha   107.90869904
_cell_angle_beta   93.79178619
_cell_angle_gamma   91.72386932
_symmetry_Int_Tables_number   1
_chemical_formula_structural   K2RbBaNaLi2V3Bi(PO7)3
_chemical_formula_sum   'Rb1 K2 Ba1 Na1 Li2 V3 Bi1 P3 O21'
_cell_volume   364.01175398
_cell_formula_units_Z   1
loop_
 _symmetry_equiv_pos_site_id
 _symmetry_equiv_pos_as_xyz
  1  'x, y, z'
loop_
 _atom_site_type_symbol
 _atom_site_label
 _atom_site_symmetry_multiplicity
 _atom_site_fract_x
 _atom_site_fract_y
 _atom_site_fract_z
 _atom_site_occupancy
  O  O0  1  0.35647428  0.70502526  0.94984335  1
  O  O1  1  0.85854709  0.78409278  0.78852081  1
  P  P2  1  0.95687187  0.98555732  0.86065733  1
  O  O3  1  0.50431269  0.05139947  0.46967971  1
  Rb  Rb4  1  0.98628747  0.93692946  0.36447847  1
  K  K5  1  0.45390090  0.72494119  0.58026463  1
  O  O6  1  0.06216361  0.03296712  0.05165133  1
  P  P7  1  0.44357109  0.58852148  0.07605329  1
  Ba  Ba8  1  0.98012763  0.44214934  0.79889089  1
  O  O9  1  0.34585291  0.37971297  0.98364365  1
  K  K10  1  0.96539116  0.39690983  0.25372353  1
  O  O11  1  0.77620393  0.12642227  0.86510789  1
  O  O12  1  0.23590127  0.33424491  0.50583565  1
  O  O13  1  0.15425017  0.00869267  0.74676335  1
  P  P14  1  0.48353958  0.24683227  0.45336768  1
  O  O15  1  0.51107442  0.22743608  0.25595096  1
  O  O16  1  0.31736887  0.65403283  0.24557362  1
  O  O17  1  0.71110111  0.59978724  0.09574772  1
  O  O18  1  0.68141985  0.38054010  0.54195827  1
  Bi  Bi19  1  0.42183447  0.07265697  0.98678654  1
  O  O20  1  0.59003347  0.59576833  0.73754454  1
  Li  Li21  1  0.09361448  0.21191126  0.06311783  1
  O  O22  1  0.95117539  0.25831580  0.40229312  1
  O  O23  1  0.08488983  0.75113147  0.52932179  1
  V  V24  1  0.40025860  0.61154360  0.99410665  1
  O  O25  1  0.74896359  0.06415647  0.83222860  1
  O  O26  1  0.49650985  0.36460477  0.18574215  1
  Li  Li27  1  0.83389628  0.62110561  0.46734905  1
  V  V28  1  0.58855945  0.05072320  0.11026374  1
  V  V29  1  0.00253130  0.04568080  0.61159724  1
  O  O30  1  0.36304018  0.92457795  0.09421942  1
  O  O31  1  0.71519005  0.87444848  0.27786428  1
  Na  Na32  1  0.37219328  0.42683232  0.57347918  1
  O  O33  1  0.17674081  0.12515014  0.72448242  1
  O  O34  1  0.16484061  0.54519218  0.98736936  1
