# generated using pymatgen
data_Ba3SmSi5Sb(O5F)3
_symmetry_space_group_name_H-M   'P 1'
_cell_length_a   5.55214691
_cell_length_b   5.50559855
_cell_length_c   5.88577127
_cell_angle_alpha   108.54730225
_cell_angle_beta   92.53697205
_cell_angle_gamma   94.10487366
_symmetry_Int_Tables_number   1
_chemical_formula_structural   Ba3SmSi5Sb(O5F)3
_chemical_formula_sum   'Ba3 Sm1 Si5 Sb1 O15 F3'
_cell_volume   169.70547934
_cell_formula_units_Z   1
loop_
 _symmetry_equiv_pos_site_id
 _symmetry_equiv_pos_as_xyz
  1  'x, y, z'
loop_
 _atom_site_type_symbol
 _atom_site_label
 _atom_site_symmetry_multiplicity
 _atom_site_fract_x
 _atom_site_fract_y
 _atom_site_fract_z
 _atom_site_occupancy
  O  O0  1  0.20128813  0.39384013  0.65210187  1
  O  O1  1  0.05106969  0.84016746  0.92785311  1
  F  F2  1  0.09283039  0.80226320  0.39466655  1
  O  O3  1  0.76023066  0.46878803  0.59597212  1
  Ba  Ba4  1  0.47601417  0.97938776  0.71949893  1
  F  F5  1  0.62069124  0.94411856  0.23067558  1
  Sm  Sm6  1  0.00212406  0.22147271  0.27684945  1
  F  F7  1  0.36800674  0.35846686  0.14885750  1
  Si  Si8  1  0.97092271  0.52225262  0.80172265  1
  O  O9  1  0.86072862  0.35120830  0.97095996  1
  O  O10  1  0.89017135  0.34637159  0.82971996  1
  O  O11  1  0.25922620  0.60744631  0.68125439  1
  O  O12  1  0.48800564  0.52790540  0.42487347  1
  O  O13  1  0.04805940  0.26095417  0.44161257  1
  O  O14  1  0.86942661  0.76616156  0.68823701  1
  O  O15  1  0.58545989  0.89977121  0.92297542  1
  Sb  Sb16  1  0.66642296  0.02700385  0.70954543  1
  Ba  Ba17  1  0.11037625  0.79222655  0.42656571  1
  Si  Si18  1  0.37031269  0.88494414  0.04321973  1
  O  O19  1  0.35505944  0.63547873  0.15050088  1
  Si  Si20  1  0.29204321  0.37356013  0.55137008  1
  O  O21  1  0.42933586  0.16290432  0.16112548  1
  Si  Si22  1  0.52408534  0.49375260  0.23109585  1
  O  O23  1  0.38337183  0.16787510  0.63287407  1
  O  O24  1  0.78620303  0.63942826  0.20204756  1
  Si  Si25  1  0.02530885  0.63595146  0.79125178  1
  O  O26  1  0.12837823  0.82291818  0.94809538  1
  Ba  Ba27  1  0.93675303  0.18468970  0.12040477  1
