# generated using pymatgen
data_LiDy2Mg2Cd2Ag2Hg
_symmetry_space_group_name_H-M   'P 1'
_cell_length_a   5.49120045
_cell_length_b   5.77388525
_cell_length_c   5.57626677
_cell_angle_alpha   71.52328491
_cell_angle_beta   62.80946350
_cell_angle_gamma   61.03614426
_symmetry_Int_Tables_number   1
_chemical_formula_structural   LiDy2Mg2Cd2Ag2Hg
_chemical_formula_sum   'Li1 Dy2 Mg2 Cd2 Ag2 Hg1'
_cell_volume   136.54872767
_cell_formula_units_Z   1
loop_
 _symmetry_equiv_pos_site_id
 _symmetry_equiv_pos_as_xyz
  1  'x, y, z'
loop_
 _atom_site_type_symbol
 _atom_site_label
 _atom_site_symmetry_multiplicity
 _atom_site_fract_x
 _atom_site_fract_y
 _atom_site_fract_z
 _atom_site_occupancy
  Mg  Mg0  1  0.36904860  0.51097566  0.32777473  1
  Ag  Ag1  1  0.03462652  0.18718615  0.33190265  1
  Cd  Cd2  1  0.20550227  0.01801797  0.83588511  1
  Li  Li3  1  0.54970753  0.34842828  0.82269144  1
  Cd  Cd4  1  0.88013661  0.69090015  0.81955522  1
  Mg  Mg5  1  0.70538342  0.84872526  0.32760811  1
  Dy  Dy6  1  0.22542597  0.80646235  0.62006825  1
  Dy  Dy7  1  0.21396057  0.30528146  0.11562312  1
  Ag  Ag8  1  0.72187597  0.79804403  0.11999272  1
  Hg  Hg9  1  0.71796912  0.29974240  0.62387246  1
