# generated using pymatgen
data_NaLiPr2TiMn2Al3Co2(SbO11)2
_symmetry_space_group_name_H-M   'P 1'
_cell_length_a   5.51659679
_cell_length_b   5.69928217
_cell_length_c   6.32222652
_cell_angle_alpha   105.41571045
_cell_angle_beta   89.02704620
_cell_angle_gamma   93.85156250
_symmetry_Int_Tables_number   1
_chemical_formula_structural   NaLiPr2TiMn2Al3Co2(SbO11)2
_chemical_formula_sum   'Na1 Li1 Pr2 Ti1 Mn2 Al3 Co2 Sb2 O22'
_cell_volume   191.19057152
_cell_formula_units_Z   1
loop_
 _symmetry_equiv_pos_site_id
 _symmetry_equiv_pos_as_xyz
  1  'x, y, z'
loop_
 _atom_site_type_symbol
 _atom_site_label
 _atom_site_symmetry_multiplicity
 _atom_site_fract_x
 _atom_site_fract_y
 _atom_site_fract_z
 _atom_site_occupancy
  Co  Co0  1  0.38966635  0.89104122  0.71165287  1
  Na  Na1  1  0.31251281  0.34614491  0.36603087  1
  Al  Al2  1  0.80668509  0.03396131  0.06198093  1
  O  O3  1  0.70662928  0.79512465  0.52042747  1
  Al  Al4  1  0.91653734  0.71828240  0.66631371  1
  O  O5  1  0.86653161  0.40227428  0.67022783  1
  O  O6  1  0.53914982  0.03261833  0.24706581  1
  O  O7  1  0.16710445  0.69354820  0.49220598  1
  Co  Co8  1  0.24116817  0.79060632  0.23162067  1
  O  O9  1  0.65723675  0.76269293  0.88566095  1
  O  O10  1  0.46536040  0.21854243  0.66957855  1
  Al  Al11  1  0.58799952  0.44835672  0.89282328  1
  O  O12  1  0.33533192  0.50206751  0.02705722  1
  Li  Li13  1  0.08874435  0.30724469  0.85576439  1
  O  O14  1  0.77206814  0.33255434  0.04232492  1
  O  O15  1  0.04992524  0.97880453  0.85776472  1
  O  O16  1  0.99332047  0.04003609  0.27767271  1
  Ti  Ti17  1  0.73736709  0.08837946  0.48323715  1
  O  O18  1  0.99719888  0.12393187  0.47039866  1
  Pr  Pr19  1  0.28138894  0.52845645  0.77884012  1
  Mn  Mn20  1  0.98129213  0.06850634  0.76693326  1
  O  O21  1  0.99802923  0.44772208  0.14419734  1
  O  O22  1  0.40450162  0.89256668  0.68266064  1
  O  O23  1  0.07704186  0.99127084  0.03000867  1
  O  O24  1  0.53503513  0.17585123  0.85970068  1
  O  O25  1  0.67353284  0.54410648  0.48992375  1
  O  O26  1  0.04813542  0.32350627  0.70496076  1
  O  O27  1  0.55645865  0.84171504  0.18755910  1
  Mn  Mn28  1  0.56831837  0.54882300  0.24497162  1
  Pr  Pr29  1  0.77786237  0.92135316  0.38911203  1
  O  O30  1  0.50551361  0.60009396  0.99355829  1
  Sb  Sb31  1  0.07625987  0.38047352  0.41305918  1
  Sb  Sb32  1  0.48671758  0.89717275  0.92960382  1
  O  O33  1  0.16629332  0.63320810  0.41565898  1
  O  O34  1  0.48034972  0.27879184  0.32922754  1
  O  O35  1  0.88183933  0.82241172  0.77264416  1
