# generated using pymatgen
data_Mn2Bi2W3(O7F2)2
_symmetry_space_group_name_H-M   'P 1'
_cell_length_a   5.05520535
_cell_length_b   4.87366390
_cell_length_c   5.34648085
_cell_angle_alpha   65.75167847
_cell_angle_beta   60.28285217
_cell_angle_gamma   62.88342667
_symmetry_Int_Tables_number   1
_chemical_formula_structural   Mn2Bi2W3(O7F2)2
_chemical_formula_sum   'Mn2 Bi2 W3 O14 F4'
_cell_volume   98.87412842
_cell_formula_units_Z   1
loop_
 _symmetry_equiv_pos_site_id
 _symmetry_equiv_pos_as_xyz
  1  'x, y, z'
loop_
 _atom_site_type_symbol
 _atom_site_label
 _atom_site_symmetry_multiplicity
 _atom_site_fract_x
 _atom_site_fract_y
 _atom_site_fract_z
 _atom_site_occupancy
  O  O0  1  0.67809725  0.14171329  0.73044074  1
  Mn  Mn1  1  0.55642813  0.37373775  0.97729808  1
  O  O2  1  0.19048652  0.27015960  0.22579825  1
  Mn  Mn3  1  0.04987384  0.91910022  0.47673440  1
  F  F4  1  0.82230568  0.01479151  0.22463170  1
  F  F5  1  0.30417010  0.77281654  0.71860844  1
  F  F6  1  0.44218811  0.64201784  0.23008734  1
  F  F7  1  0.92832303  0.52333105  0.72243559  1
  O  O8  1  0.13680021  0.80553037  0.70566320  1
  Bi  Bi9  1  0.43441853  0.67422885  0.55183750  1
  O  O10  1  0.63258404  0.65973830  0.30614901  1
  O  O11  1  0.25897613  0.40153143  0.56688452  1
  O  O12  1  0.83025706  0.11869617  0.79913050  1
  O  O13  1  0.34907237  0.16696124  0.82415169  1
  O  O14  1  0.17540303  0.20427947  0.13805494  1
  O  O15  1  0.09359454  0.63639164  0.29089421  1
  W  W16  1  0.16231029  0.99438536  0.92566264  1
  O  O17  1  0.90391314  0.00877930  0.35570872  1
  W  W18  1  0.56943518  0.30037260  0.74569631  1
  O  O19  1  0.70752949  0.39510417  0.57189232  1
  W  W20  1  0.79606819  0.77748960  0.18586367  1
  O  O21  1  0.66389638  0.50840014  0.94510466  1
  Bi  Bi22  1  0.90200418  0.32549134  0.32097435  1
  O  O23  1  0.48682997  0.89028704  0.04362580  1
  O  O24  1  0.96122044  0.83272290  0.00553933  1
