# generated using pymatgen
data_RbLi3MnV2FeOs(O4F3)2
_symmetry_space_group_name_H-M   'P 1'
_cell_length_a   4.91701555
_cell_length_b   5.37308884
_cell_length_c   5.39832401
_cell_angle_alpha   111.88745880
_cell_angle_beta   84.57865143
_cell_angle_gamma   88.39051819
_symmetry_Int_Tables_number   1
_chemical_formula_structural   RbLi3MnV2FeOs(O4F3)2
_chemical_formula_sum   'Rb1 Li3 Mn1 V2 Fe1 Os1 O8 F6'
_cell_volume   131.43916769
_cell_formula_units_Z   1
loop_
 _symmetry_equiv_pos_site_id
 _symmetry_equiv_pos_as_xyz
  1  'x, y, z'
loop_
 _atom_site_type_symbol
 _atom_site_label
 _atom_site_symmetry_multiplicity
 _atom_site_fract_x
 _atom_site_fract_y
 _atom_site_fract_z
 _atom_site_occupancy
  F  F0  1  0.87297225  0.02908716  0.04613458  1
  F  F1  1  0.22112043  0.36516786  0.03392628  1
  F  F2  1  0.87211752  0.36727619  0.71373594  1
  F  F3  1  0.37441772  0.86188191  0.85998601  1
  Os  Os4  1  0.12716670  0.11621617  0.78528345  1
  F  F5  1  0.02243950  0.85981882  0.54014945  1
  F  F6  1  0.37046063  0.19595352  0.52563041  1
  Rb  Rb7  1  0.62741715  0.61357665  0.28747717  1
  O  O8  1  0.17910933  0.67645144  0.63621104  1
  Li  Li9  1  0.17172436  0.99054754  0.32094273  1
  O  O10  1  0.17307170  0.62769341  0.09838869  1
  Fe  Fe11  1  0.68123943  0.65245980  0.13157463  1
  O  O12  1  0.68093854  0.47872227  0.29437679  1
  Mn  Mn13  1  0.17442475  0.02663513  0.80745471  1
  O  O14  1  0.18037799  0.20653684  0.64496779  1
  O  O15  1  0.67608440  0.97273904  0.28030926  1
  O  O16  1  0.17774814  0.15203802  0.14078632  1
  O  O17  1  0.67643708  0.02744125  0.85199076  1
  V  V18  1  0.67569512  0.16339384  0.15085845  1
  V  V19  1  0.17915699  0.50366229  0.78511983  1
  Li  Li20  1  0.18015647  0.50449032  0.31873220  1
  Li  Li21  1  0.67815822  0.68651044  0.61656654  1
  O  O22  1  0.68074691  0.54644305  0.82215750  1
