# generated using pymatgen
data_LiCa2Ti2W(OF)6
_symmetry_space_group_name_H-M   'P 1'
_cell_length_a   3.62944078
_cell_length_b   3.82179332
_cell_length_c   7.73870802
_cell_angle_alpha   91.09651184
_cell_angle_beta   89.97035217
_cell_angle_gamma   91.76321411
_symmetry_Int_Tables_number   1
_chemical_formula_structural   LiCa2Ti2W(OF)6
_chemical_formula_sum   'Li1 Ca2 Ti2 W1 O6 F6'
_cell_volume   107.27293378
_cell_formula_units_Z   1
loop_
 _symmetry_equiv_pos_site_id
 _symmetry_equiv_pos_as_xyz
  1  'x, y, z'
loop_
 _atom_site_type_symbol
 _atom_site_label
 _atom_site_symmetry_multiplicity
 _atom_site_fract_x
 _atom_site_fract_y
 _atom_site_fract_z
 _atom_site_occupancy
  Ca  Ca0  1  0.14785850  0.87967914  0.67250872  1
  Ca  Ca1  1  0.15428455  0.87291729  0.17292055  1
  Ti  Ti2  1  0.64677870  0.37574574  0.92316216  1
  O  O3  1  0.64778113  0.88095582  0.92246228  1
  O  O4  1  0.64952630  0.37014407  0.17652619  1
  Ti  Ti5  1  0.65295690  0.38202047  0.42484322  1
  O  O6  1  0.14279205  0.37556589  0.42448780  1
  O  O7  1  0.64190632  0.87848467  0.42019302  1
  O  O8  1  0.14475316  0.37596622  0.92071158  1
  O  O9  1  0.65176225  0.37915611  0.67406183  1
  F  F10  1  0.42935038  0.77243888  0.64208770  1
  F  F11  1  0.98729014  0.90519798  0.49102873  1
  F  F12  1  0.54342633  0.33195364  0.51274979  1
  F  F13  1  0.15517148  0.51812106  0.27379858  1
  Li  Li14  1  0.61904550  0.96621931  0.70638949  1
  F  F15  1  0.51670676  0.85926300  0.10361731  1
  F  F16  1  0.03329543  0.42421710  0.82015085  1
  W  W17  1  0.26967612  0.63415694  0.47375363  1
