# generated using pymatgen
data_Ca8La2In6Sn2(PPd2)3
_symmetry_space_group_name_H-M   'P 1'
_cell_length_a   4.61279488
_cell_length_b   4.97328615
_cell_length_c   8.50481510
_cell_angle_alpha   100.78958893
_cell_angle_beta   100.03569031
_cell_angle_gamma   90.25914001
_symmetry_Int_Tables_number   1
_chemical_formula_structural   Ca8La2In6Sn2(PPd2)3
_chemical_formula_sum   'Ca8 La2 In6 Sn2 P3 Pd6'
_cell_volume   188.58590899
_cell_formula_units_Z   1
loop_
 _symmetry_equiv_pos_site_id
 _symmetry_equiv_pos_as_xyz
  1  'x, y, z'
loop_
 _atom_site_type_symbol
 _atom_site_label
 _atom_site_symmetry_multiplicity
 _atom_site_fract_x
 _atom_site_fract_y
 _atom_site_fract_z
 _atom_site_occupancy
  Pd  Pd0  1  0.20119351  0.31823361  0.41412008  1
  Pd  Pd1  1  0.03620749  0.56031913  0.13858539  1
  La  La2  1  0.66842300  0.80472416  0.40729669  1
  Pd  Pd3  1  0.78742486  0.35982671  0.64366126  1
  P  P4  1  0.28713331  0.14957298  0.64244771  1
  P  P5  1  0.06055396  0.06294604  0.21536519  1
  La  La6  1  0.88009703  0.92674923  0.86519617  1
  Pd  Pd7  1  0.53116316  0.18017663  0.14775050  1
  Pd  Pd8  1  0.35739651  0.40792385  0.86999720  1
  P  P9  1  0.50635189  0.67414427  0.06666051  1
  Pd  Pd10  1  0.28364277  0.71981430  0.63965297  1
  Ca  Ca11  1  0.45997882  0.50884515  0.70349818  1
  In  In12  1  0.02460965  0.13574742  0.45357051  1
  Sn  Sn13  1  0.14737397  0.38125536  0.95623732  1
  Ca  Ca14  1  0.58702421  0.76030344  0.20495516  1
  In  In15  1  0.65413213  0.38871107  0.95483601  1
  Ca  Ca16  1  0.34092489  0.26252577  0.20872363  1
  Ca  Ca17  1  0.96114188  0.50992537  0.70643246  1
  Ca  Ca18  1  0.71408093  0.00767044  0.70539802  1
  Ca  Ca19  1  0.20907559  0.00930300  0.70060754  1
  In  In20  1  0.27752492  0.63985056  0.45494628  1
  In  In21  1  0.40177491  0.88677412  0.95281982  1
  In  In22  1  0.89806008  0.88686305  0.95493567  1
  Sn  Sn23  1  0.52236086  0.13683806  0.45451224  1
  Ca  Ca24  1  0.83429033  0.25573030  0.20160475  1
  Ca  Ca25  1  0.08855835  0.76129735  0.20570913  1
  In  In26  1  0.77116239  0.63471323  0.45453069  1
