# generated using pymatgen
data_Y2Al2CuSi4Ni2Ge2(PdS)4
_symmetry_space_group_name_H-M   'P 1'
_cell_length_a   4.18834639
_cell_length_b   4.74701357
_cell_length_c   7.50320721
_cell_angle_alpha   93.84745026
_cell_angle_beta   92.95336914
_cell_angle_gamma   90.80950165
_symmetry_Int_Tables_number   1
_chemical_formula_structural   Y2Al2CuSi4Ni2Ge2(PdS)4
_chemical_formula_sum   'Y2 Al2 Cu1 Si4 Ni2 Ge2 Pd4 S4'
_cell_volume   148.62273407
_cell_formula_units_Z   1
loop_
 _symmetry_equiv_pos_site_id
 _symmetry_equiv_pos_as_xyz
  1  'x, y, z'
loop_
 _atom_site_type_symbol
 _atom_site_label
 _atom_site_symmetry_multiplicity
 _atom_site_fract_x
 _atom_site_fract_y
 _atom_site_fract_z
 _atom_site_occupancy
  Ge  Ge0  1  0.50928801  0.87303776  0.99986225  1
  S  S1  1  0.50652963  0.61516923  0.23811506  1
  S  S2  1  0.00711102  0.10910251  0.99142843  1
  S  S3  1  0.49878234  0.60635746  0.73925793  1
  Cu  Cu4  1  0.00742864  0.36147830  0.74089128  1
  Ge  Ge5  1  0.49911326  0.86014676  0.48586902  1
  S  S6  1  0.99879146  0.11365241  0.48659360  1
  Al  Al7  1  0.60963005  0.94592851  0.92442328  1
  Si  Si8  1  0.09921925  0.05788251  0.21841507  1
  Si  Si9  1  0.60820985  0.36395034  0.85650480  1
  Pd  Pd10  1  0.59745324  0.66262555  0.68540269  1
  Si  Si11  1  0.10468498  0.86460918  0.71871632  1
  Y  Y12  1  0.59523898  0.12070458  0.53285635  1
  Y  Y13  1  0.10714515  0.62097043  0.04441544  1
  Ni  Ni14  1  0.59540892  0.87496191  0.21877986  1
  Pd  Pd15  1  0.10774624  0.16583149  0.88999134  1
  Ni  Ni16  1  0.09612598  0.37160307  0.35350594  1
  Pd  Pd17  1  0.60006541  0.27194974  0.15165767  1
  Al  Al18  1  0.10203013  0.44702110  0.65254241  1
  Pd  Pd19  1  0.09907238  0.77819490  0.42526308  1
  Si  Si20  1  0.60129631  0.56351221  0.35412195  1
