# generated using pymatgen
data_LiCeThMgSiTe4
_symmetry_space_group_name_H-M   'P 1'
_cell_length_a   2.91047359
_cell_length_b   2.99111438
_cell_length_c   2.88319898
_cell_angle_alpha   113.73895264
_cell_angle_beta   92.15878296
_cell_angle_gamma   97.07604980
_symmetry_Int_Tables_number   1
_chemical_formula_structural   LiCeThMgSiTe4
_chemical_formula_sum   'Li1 Ce1 Th1 Mg1 Si1 Te4'
_cell_volume   22.69570400
_cell_formula_units_Z   1
loop_
 _symmetry_equiv_pos_site_id
 _symmetry_equiv_pos_as_xyz
  1  'x, y, z'
loop_
 _atom_site_type_symbol
 _atom_site_label
 _atom_site_symmetry_multiplicity
 _atom_site_fract_x
 _atom_site_fract_y
 _atom_site_fract_z
 _atom_site_occupancy
  Th  Th0  1  0.11055738  0.64728987  0.27107093  1
  Te  Te1  1  0.32680199  0.97539228  0.23864657  1
  Li  Li2  1  0.82443511  0.98043883  0.25143170  1
  Te  Te3  1  0.07133303  0.22428606  0.74239469  1
  Ce  Ce4  1  0.32672307  0.47964379  0.25188914  1
  Te  Te5  1  0.82976568  0.47974753  0.25997794  1
  Te  Te6  1  0.57865793  0.73583144  0.75911623  1
  Si  Si7  1  0.07290015  0.72796899  0.75272107  1
  Mg  Mg8  1  0.57068002  0.22626673  0.74796343  1
