# generated using pymatgen
data_KRbBa2Na2Ce2Bi3(SO6)2
_symmetry_space_group_name_H-M   'P 1'
_cell_length_a   4.57805872
_cell_length_b   4.52782726
_cell_length_c   14.06953526
_cell_angle_alpha   95.90647888
_cell_angle_beta   91.43431854
_cell_angle_gamma   89.76621246
_symmetry_Int_Tables_number   1
_chemical_formula_structural   KRbBa2Na2Ce2Bi3(SO6)2
_chemical_formula_sum   'Rb1 K1 Ba2 Na2 Ce2 Bi3 S2 O12'
_cell_volume   290.00309840
_cell_formula_units_Z   1
loop_
 _symmetry_equiv_pos_site_id
 _symmetry_equiv_pos_as_xyz
  1  'x, y, z'
loop_
 _atom_site_type_symbol
 _atom_site_label
 _atom_site_symmetry_multiplicity
 _atom_site_fract_x
 _atom_site_fract_y
 _atom_site_fract_z
 _atom_site_occupancy
  O  O0  1  0.60300094  0.74964207  0.83008134  1
  Bi  Bi1  1  0.59801090  0.74157578  0.99582827  1
  O  O2  1  0.10158172  0.74233907  0.64658487  1
  Rb  Rb3  1  0.10294168  0.24681346  0.83175850  1
  O  O4  1  0.59836900  0.24437045  0.64757067  1
  Ba  Ba5  1  0.10362245  0.24508809  0.50209135  1
  Bi  Bi6  1  0.60329783  0.74454969  0.66328770  1
  Ba  Ba7  1  0.09988590  0.23518880  0.14928626  1
  Bi  Bi8  1  0.60031945  0.73955876  0.32872441  1
  O  O9  1  0.09753656  0.74291295  0.01592149  1
  O  O10  1  0.59821570  0.74039423  0.17361510  1
  O  O11  1  0.60557759  0.24195091  0.01297562  1
  O  O12  1  0.09728239  0.74385816  0.33408618  1
  O  O13  1  0.59806198  0.23897003  0.33620194  1
  O  O14  1  0.59828937  0.74198008  0.49068382  1
  Na  Na15  1  0.65068269  0.19150707  0.52161759  1
  S  S16  1  0.64906156  0.68315595  0.71367270  1
  Ce  Ce17  1  0.15035310  0.69450885  0.51729482  1
  K  K18  1  0.14594521  0.19656055  0.20219857  1
  O  O19  1  0.14813808  0.19515081  0.52924806  1
  O  O20  1  0.15300095  0.69603711  0.00221840  1
  S  S21  1  0.65074497  0.70270455  0.31844589  1
  Na  Na22  1  0.15056671  0.19145747  0.82664329  1
  O  O23  1  0.64853132  0.19814360  0.00310696  1
  Ce  Ce24  1  0.64925277  0.69992858  0.01178497  1
