# generated using pymatgen
data_LiTbMnFeSiAgBiSb(O5F)2
_symmetry_space_group_name_H-M   'P 1'
_cell_length_a   4.61155558
_cell_length_b   4.69861794
_cell_length_c   6.23431158
_cell_angle_alpha   100.39900208
_cell_angle_beta   99.49674225
_cell_angle_gamma   90.34562683
_symmetry_Int_Tables_number   1
_chemical_formula_structural   LiTbMnFeSiAgBiSb(O5F)2
_chemical_formula_sum   'Li1 Tb1 Mn1 Fe1 Si1 Ag1 Bi1 Sb1 O10 F2'
_cell_volume   130.95559696
_cell_formula_units_Z   1
loop_
 _symmetry_equiv_pos_site_id
 _symmetry_equiv_pos_as_xyz
  1  'x, y, z'
loop_
 _atom_site_type_symbol
 _atom_site_label
 _atom_site_symmetry_multiplicity
 _atom_site_fract_x
 _atom_site_fract_y
 _atom_site_fract_z
 _atom_site_occupancy
  Fe  Fe0  1  0.78784144  0.85537446  0.79885375  1
  O  O1  1  0.11038088  0.20600872  0.96568096  1
  O  O2  1  0.03941383  0.53123033  0.64106458  1
  Si  Si3  1  0.28176323  0.34838927  0.80527395  1
  F  F4  1  0.90390176  0.98588830  0.30166662  1
  Tb  Tb5  1  0.90075725  0.47766662  0.25400481  1
  O  O6  1  0.45670274  0.11212855  0.66080523  1
  O  O7  1  0.55446094  0.58481258  0.95713609  1
  Li  Li8  1  0.42536438  0.01740593  0.36397013  1
  F  F9  1  0.43927541  0.52954298  0.34905231  1
  O  O10  1  0.63963729  0.49087936  0.91098332  1
  Mn  Mn11  1  0.58677864  0.71343595  0.71798980  1
  Bi  Bi12  1  0.91551161  0.37996411  0.21961118  1
  Ag  Ag13  1  0.54576111  0.76408654  0.22211382  1
  O  O14  1  0.37893340  0.85842371  0.50680161  1
  Sb  Sb15  1  0.22923653  0.07361403  0.71621978  1
  O  O16  1  0.12785552  0.25705510  0.50789028  1
  O  O17  1  0.06170711  0.17642270  0.94193625  1
  O  O18  1  0.45089009  0.91803831  0.92692542  1
  O  O19  1  0.81381088  0.66619635  0.53093994  1
