# generated using pymatgen
data_Rb3Na2CaMgBeCrCu6NiH2Cl7O13
_symmetry_space_group_name_H-M   'P 1'
_cell_length_a   3.69401145
_cell_length_b   5.21214294
_cell_length_c   10.56954861
_cell_angle_alpha   92.73410034
_cell_angle_beta   92.68395233
_cell_angle_gamma   89.60793304
_symmetry_Int_Tables_number   1
_chemical_formula_structural   Rb3Na2CaMgBeCrCu6NiH2Cl7O13
_chemical_formula_sum   'Rb3 Na2 Ca1 Mg1 Be1 Cr1 Cu6 Ni1 H2 Cl7 O13'
_cell_volume   203.04627960
_cell_formula_units_Z   1
loop_
 _symmetry_equiv_pos_site_id
 _symmetry_equiv_pos_as_xyz
  1  'x, y, z'
loop_
 _atom_site_type_symbol
 _atom_site_label
 _atom_site_symmetry_multiplicity
 _atom_site_fract_x
 _atom_site_fract_y
 _atom_site_fract_z
 _atom_site_occupancy
  Cr  Cr0  1  0.99680251  0.54821533  0.29271749  1
  Cu  Cu1  1  0.63987768  0.75432086  0.57624453  1
  O  O2  1  0.66780978  0.26870599  0.60385704  1
  Cu  Cu3  1  0.49140573  0.04733314  0.29414564  1
  O  O4  1  0.72656554  0.79756302  0.78727895  1
  Cu  Cu5  1  0.33803302  0.33065686  0.00938683  1
  O  O6  1  0.24086010  0.29457620  0.78763282  1
  O  O7  1  0.30628067  0.82923955  0.97905546  1
  O  O8  1  0.87684715  0.85717922  0.19197489  1
  Ni  Ni9  1  0.23174942  0.79904717  0.78614068  1
  O  O10  1  0.45378810  0.35977650  0.20106158  1
  Cu  Cu11  1  0.15865648  0.26584297  0.57812202  1
  Cu  Cu12  1  0.73754078  0.29803127  0.79221994  1
  O  O13  1  0.53675556  0.71552348  0.38835600  1
  Cu  Cu14  1  0.82293379  0.82519281  0.99994206  1
  O  O15  1  0.15155472  0.76728523  0.59540862  1
  O  O16  1  0.82117063  0.33180603  0.98178267  1
  O  O17  1  0.10272598  0.22807233  0.38779643  1
  Cl  Cl18  1  0.44454503  0.92061830  0.21681918  1
  Mg  Mg19  1  0.44994491  0.31439984  0.46191913  1
  O  O20  1  0.22447738  0.79647732  0.00810969  1
  Rb  Rb21  1  0.88783860  0.87345845  0.44189519  1
  Ca  Ca22  1  0.31101745  0.77498007  0.78251886  1
  Cl  Cl23  1  0.27330217  0.08351038  0.57437909  1
  Na  Na24  1  0.33449298  0.21883573  0.14099583  1
  Cl  Cl25  1  0.37642547  0.47333604  0.95362991  1
  Cl  Cl26  1  0.06660844  0.12582874  0.93681824  1
  O  O27  1  0.55906922  0.35699704  0.61554670  1
  O  O28  1  0.41353133  0.67478937  0.60013998  1
  Cl  Cl29  1  0.76681489  0.24240153  0.27556211  1
  H  H30  1  0.43579817  0.65984786  0.51116401  1
  Cl  Cl31  1  0.78979522  0.82851201  0.77460837  1
  H  H32  1  0.52689296  0.46983013  0.59903324  1
  Na  Na33  1  0.64062566  0.12401513  0.76610637  1
  Rb  Rb34  1  0.97421300  0.46196222  0.72659433  1
  Rb  Rb35  1  0.75302845  0.62584746  0.11065573  1
  Be  Be36  1  0.22169699  0.92034787  0.05060485  1
  Cl  Cl37  1  0.17193869  0.51709861  0.35789448  1
