# generated using pymatgen
data_Ba2LaNd4CuBiPt4(SF)11
_symmetry_space_group_name_H-M   'P 1'
_cell_length_a   4.79467535
_cell_length_b   7.83139706
_cell_length_c   12.98454189
_cell_angle_alpha   88.55235291
_cell_angle_beta   84.69364929
_cell_angle_gamma   82.17599487
_symmetry_Int_Tables_number   1
_chemical_formula_structural   Ba2LaNd4CuBiPt4(SF)11
_chemical_formula_sum   'Ba2 La1 Nd4 Cu1 Bi1 Pt4 S11 F11'
_cell_volume   480.90823616
_cell_formula_units_Z   1
loop_
 _symmetry_equiv_pos_site_id
 _symmetry_equiv_pos_as_xyz
  1  'x, y, z'
loop_
 _atom_site_type_symbol
 _atom_site_label
 _atom_site_symmetry_multiplicity
 _atom_site_fract_x
 _atom_site_fract_y
 _atom_site_fract_z
 _atom_site_occupancy
  Pt  Pt0  1  0.00763302  0.01709873  0.38821363  1
  S  S1  1  0.84384149  0.45440903  0.07552376  1
  Pt  Pt2  1  0.37658632  0.39026895  0.00755623  1
  Nd  Nd3  1  0.93649268  0.42322311  0.83909285  1
  Nd  Nd4  1  0.24499616  0.35237345  0.24087892  1
  Pt  Pt5  1  0.47557473  0.82066935  0.33448461  1
  Nd  Nd6  1  0.56432927  0.51134449  0.54974997  1
  S  S7  1  0.73794615  0.08014756  0.25457117  1
  S  S8  1  0.70026743  0.52884191  0.33558962  1
  Pt  Pt9  1  0.41784814  0.09289519  0.86672038  1
  S  S10  1  0.40543264  0.64480478  0.92010319  1
  S  S11  1  0.30916354  0.72681254  0.18477383  1
  S  S12  1  0.60015494  0.88467062  0.50593936  1
  S  S13  1  0.50234646  0.25866768  0.71052533  1
  S  S14  1  0.34447721  0.09758771  0.04904183  1
  S  S15  1  0.92816412  0.00720297  0.85854167  1
  Nd  Nd16  1  0.84496319  0.84107274  0.05755438  1
  S  S17  1  0.10195068  0.27264827  0.46992260  1
  S  S18  1  0.01403257  0.63391411  0.66441238  1
  La  La19  1  0.04795134  0.01110860  0.63463938  1
  F  F20  1  0.10797317  0.76709396  0.99033201  1
  F  F21  1  0.54135507  0.89592761  0.80895644  1
  F  F22  1  0.55442756  0.45807186  0.98559338  1
  F  F23  1  0.55990571  0.45636079  0.64016157  1
  F  F24  1  0.09110068  0.26980674  0.46555814  1
  Ba  Ba25  1  0.66179281  0.99506462  0.52999550  1
  F  F26  1  0.04273653  0.27301913  0.83118582  1
  F  F27  1  0.07521869  0.26462492  0.16151246  1
  Ba  Ba28  1  0.66779995  0.98310131  0.08481453  1
  F  F29  1  0.10829899  0.77596909  0.64028001  1
  Cu  Cu30  1  0.19733755  0.47436598  0.30717760  1
  F  F31  1  0.52914572  0.28732345  0.30606115  1
  Bi  Bi32  1  0.28493741  0.57026470  0.81254834  1
  F  F33  1  0.37865987  0.75991720  0.31323051  1
  F  F34  1  0.90577990  0.72001052  0.31047392  1
