# generated using pymatgen
data_Rb2Li2DyPaSn(Se3O2)2
_symmetry_space_group_name_H-M   'P 1'
_cell_length_a   4.53036213
_cell_length_b   4.74086237
_cell_length_c   5.10266972
_cell_angle_alpha   93.10864258
_cell_angle_beta   87.43130493
_cell_angle_gamma   89.19850159
_symmetry_Int_Tables_number   1
_chemical_formula_structural   Rb2Li2DyPaSn(Se3O2)2
_chemical_formula_sum   'Rb2 Li2 Dy1 Pa1 Sn1 Se6 O4'
_cell_volume   109.30820378
_cell_formula_units_Z   1
loop_
 _symmetry_equiv_pos_site_id
 _symmetry_equiv_pos_as_xyz
  1  'x, y, z'
loop_
 _atom_site_type_symbol
 _atom_site_label
 _atom_site_symmetry_multiplicity
 _atom_site_fract_x
 _atom_site_fract_y
 _atom_site_fract_z
 _atom_site_occupancy
  Dy  Dy0  1  0.26444995  0.52687567  0.91444254  1
  O  O1  1  0.27089456  0.02999855  0.91313660  1
  O  O2  1  0.76556462  0.53236371  0.91404539  1
  Li  Li3  1  0.26527825  0.02790059  0.40691736  1
  Sn  Sn4  1  0.75584531  0.53168672  0.41246104  1
  O  O5  1  0.76600718  0.03534528  0.40738523  1
  Li  Li6  1  0.76675135  0.02935984  0.91080391  1
  O  O7  1  0.26110077  0.53026175  0.41360855  1
  Pa  Pa8  1  0.76490921  0.47084153  0.00550315  1
  Se  Se9  1  0.52073139  0.63264525  0.33254054  1
  Rb  Rb10  1  0.51326424  0.13661702  0.34056965  1
  Se  Se11  1  0.00456879  0.79310137  0.17105976  1
  Se  Se12  1  0.99957263  0.30644727  0.16965984  1
  Se  Se13  1  0.52209681  0.14016618  0.84125310  1
  Se  Se14  1  0.51867855  0.63124508  0.84098446  1
  Rb  Rb15  1  0.01834582  0.80407804  0.67227256  1
  Se  Se16  1  0.00467675  0.30508196  0.67989260  1
