# generated using pymatgen
data_Li3CeCuNiS3OF3
_symmetry_space_group_name_H-M   'P 1'
_cell_length_a   5.41457176
_cell_length_b   5.57077122
_cell_length_c   5.76876450
_cell_angle_alpha   61.65415955
_cell_angle_beta   62.57702637
_cell_angle_gamma   62.46799850
_symmetry_Int_Tables_number   1
_chemical_formula_structural   Li3CeCuNiS3OF3
_chemical_formula_sum   'Li6 Ce2 Cu2 Ni2 S6 O2 F6'
_cell_volume   129.15680249
_cell_formula_units_Z   2
loop_
 _symmetry_equiv_pos_site_id
 _symmetry_equiv_pos_as_xyz
  1  'x, y, z'
loop_
 _atom_site_type_symbol
 _atom_site_label
 _atom_site_symmetry_multiplicity
 _atom_site_fract_x
 _atom_site_fract_y
 _atom_site_fract_z
 _atom_site_occupancy
  Ni  Ni0  1  0.54451048  0.00344944  0.15092546  1
  F  F1  1  0.29328734  0.75135440  0.40525967  1
  Li  Li2  1  0.54947770  0.49149325  0.65405738  1
  Li  Li3  1  0.04612540  0.50437635  0.14782068  1
  O  O4  1  0.30888057  0.24706222  0.38966513  1
  F  F5  1  0.80216014  0.24946564  0.89467275  1
  Li  Li6  1  0.54569757  0.50295597  0.15068376  1
  F  F7  1  0.29798797  0.75463361  0.89683259  1
  F  F8  1  0.79282516  0.74819005  0.40521938  1
  Li  Li9  1  0.04636561  0.00148165  0.14956826  1
  F  F10  1  0.79051942  0.25575504  0.39788342  1
  O  O11  1  0.78790826  0.75962281  0.90493876  1
  Li  Li12  1  0.04609253  0.49822357  0.64739883  1
  Ni  Ni13  1  0.54247046  0.00252313  0.65107799  1
  Li  Li14  1  0.04677020  0.99787521  0.65002000  1
  F  F15  1  0.29186118  0.25657612  0.90403670  1
  Ce  Ce16  1  0.51449460  0.19681890  0.47515967  1
  S  S17  1  0.02170013  0.69821018  0.47184721  1
  S  S18  1  0.51944786  0.19678983  0.97676283  1
  Cu  Cu19  1  0.76830709  0.44780532  0.72615719  1
  Ce  Ce20  1  0.01530886  0.69848555  0.97548145  1
  S  S21  1  0.52215385  0.69647777  0.46749008  1
  Cu  Cu22  1  0.27217463  0.94755381  0.22031987  1
  S  S23  1  0.01386675  0.20147856  0.96989095  1
  S  S24  1  0.51954585  0.70218378  0.97040951  1
  S  S25  1  0.02465403  0.19562417  0.47077510  1
