# generated using pymatgen
data_SrLi2In3Sb2
_symmetry_space_group_name_H-M   'P 1'
_cell_length_a   4.57828569
_cell_length_b   5.30003214
_cell_length_c   5.07004976
_cell_angle_alpha   84.21174622
_cell_angle_beta   65.51838684
_cell_angle_gamma   64.89135742
_symmetry_Int_Tables_number   1
_chemical_formula_structural   SrLi2In3Sb2
_chemical_formula_sum   'Sr1 Li2 In3 Sb2'
_cell_volume   100.96365556
_cell_formula_units_Z   1
loop_
 _symmetry_equiv_pos_site_id
 _symmetry_equiv_pos_as_xyz
  1  'x, y, z'
loop_
 _atom_site_type_symbol
 _atom_site_label
 _atom_site_symmetry_multiplicity
 _atom_site_fract_x
 _atom_site_fract_y
 _atom_site_fract_z
 _atom_site_occupancy
  Li  Li0  1  0.73158133  0.22070907  0.18483797  1
  In  In1  1  0.23081954  0.97630584  0.43210143  1
  Li  Li2  1  0.72856289  0.73105133  0.67874962  1
  Sr  Sr3  1  0.23362516  0.48025790  0.93493652  1
  In  In4  1  0.44850487  0.03895353  0.32660905  1
  In  In5  1  0.94627035  0.53432143  0.82681870  1
  Sb  Sb6  1  0.95329046  0.53120869  0.32906687  1
  Sb  Sb7  1  0.45195091  0.03912005  0.82678163  1
