# generated using pymatgen
data_KLiLaPrMn2ZnCd2W3ClO18
_symmetry_space_group_name_H-M   'P 1'
_cell_length_a   4.10857153
_cell_length_b   5.71015024
_cell_length_c   10.83570290
_cell_angle_alpha   97.84056854
_cell_angle_beta   92.34988403
_cell_angle_gamma   104.37893677
_symmetry_Int_Tables_number   1
_chemical_formula_structural   KLiLaPrMn2ZnCd2W3ClO18
_chemical_formula_sum   'K1 Li1 La1 Pr1 Mn2 Zn1 Cd2 W3 Cl1 O18'
_cell_volume   243.20252791
_cell_formula_units_Z   1
loop_
 _symmetry_equiv_pos_site_id
 _symmetry_equiv_pos_as_xyz
  1  'x, y, z'
loop_
 _atom_site_type_symbol
 _atom_site_label
 _atom_site_symmetry_multiplicity
 _atom_site_fract_x
 _atom_site_fract_y
 _atom_site_fract_z
 _atom_site_occupancy
  Cd  Cd0  1  0.90001738  0.31077835  0.83485055  1
  O  O1  1  0.69320989  0.88443905  0.75827914  1
  W  W2  1  0.73524082  0.92884183  0.56384480  1
  O  O3  1  0.81512767  0.11410810  0.02179526  1
  Zn  Zn4  1  0.03507750  0.49750555  0.52460146  1
  O  O5  1  0.46912336  0.47116452  0.87051046  1
  O  O6  1  0.57285082  0.59945107  0.50699484  1
  O  O7  1  0.32037759  0.10826669  0.20971549  1
  O  O8  1  0.65238881  0.77172261  0.11948673  1
  O  O9  1  0.21678537  0.89841175  0.55721569  1
  W  W10  1  0.81692189  0.08925503  0.20850007  1
  O  O11  1  0.87356758  0.23096775  0.60916370  1
  O  O12  1  0.14056489  0.78165454  0.93252611  1
  O  O13  1  0.74512750  0.95915031  0.37076837  1
  O  O14  1  0.96438062  0.39722371  0.29319224  1
  Cd  Cd15  1  0.52997661  0.55707377  0.27776206  1
  W  W16  1  0.62957609  0.78394318  0.92883921  1
  La  La17  1  0.15638958  0.12246615  0.11345095  1
  Mn  Mn18  1  0.68682891  0.84845591  0.06484307  1
  O  O19  1  0.80727333  0.43058348  0.59590507  1
  Cl  Cl20  1  0.15964872  0.86031961  0.42262822  1
  O  O21  1  0.21578017  0.38045308  0.95719415  1
  O  O22  1  0.94736201  0.84143615  0.90462720  1
  K  K23  1  0.67852235  0.97683078  0.60300750  1
  O  O24  1  0.35562667  0.37304243  0.41403934  1
  O  O25  1  0.76020855  0.16465448  0.19748569  1
  Pr  Pr26  1  0.16513306  0.56949121  0.72754991  1
  O  O27  1  0.64888418  0.64232010  0.25292972  1
  Mn  Mn28  1  0.65553355  0.40774462  0.37412655  1
  Li  Li29  1  0.33130503  0.58061510  0.19231223  1
  O  O30  1  0.39831313  0.86263019  0.92632186  1
