# generated using pymatgen
data_K6Ho2U2Te(HO6)3
_symmetry_space_group_name_H-M   'P 1'
_cell_length_a   4.92209578
_cell_length_b   5.67431164
_cell_length_c   6.67011786
_cell_angle_alpha   113.39906311
_cell_angle_beta   103.20729065
_cell_angle_gamma   97.94820404
_symmetry_Int_Tables_number   1
_chemical_formula_structural   K6Ho2U2Te(HO6)3
_chemical_formula_sum   'K6 Ho2 U2 Te1 H3 O18'
_cell_volume   160.88981232
_cell_formula_units_Z   1
loop_
 _symmetry_equiv_pos_site_id
 _symmetry_equiv_pos_as_xyz
  1  'x, y, z'
loop_
 _atom_site_type_symbol
 _atom_site_label
 _atom_site_symmetry_multiplicity
 _atom_site_fract_x
 _atom_site_fract_y
 _atom_site_fract_z
 _atom_site_occupancy
  O  O0  1  0.02964480  0.44919476  0.80440408  1
  O  O1  1  0.32572493  0.30868691  0.25773734  1
  K  K2  1  0.82013786  0.03024284  0.84814805  1
  O  O3  1  0.78772509  0.17163479  0.28241733  1
  H  H4  1  0.18044800  0.87056381  0.52403164  1
  O  O5  1  0.57611090  0.56802338  0.77776414  1
  O  O6  1  0.29712629  0.04201273  0.50792325  1
  K  K7  1  0.54078501  0.71798939  0.20056255  1
  O  O8  1  0.06684361  0.70473218  0.53596532  1
  H  H9  1  0.84984094  0.51106095  0.79494572  1
  U  U10  1  0.17425342  0.37103578  0.52511454  1
  H  H11  1  0.49276078  0.25248641  0.25845590  1
  Te  Te12  1  0.65128750  0.62521470  0.47421438  1
  O  O13  1  0.41394448  0.85698676  0.47692037  1
  K  K14  1  0.65086496  0.12431358  0.72224450  1
  Ho  Ho15  1  0.14546275  0.12564759  0.47313029  1
  O  O16  1  0.64815390  0.62496817  0.70834875  1
  O  O17  1  0.90529180  0.88468581  0.97387910  1
  O  O18  1  0.88041312  0.85340309  0.47419956  1
  O  O19  1  0.39402232  0.88306046  0.97441405  1
  U  U20  1  0.15354294  0.12466359  0.97639579  1
  O  O21  1  0.41246828  0.39583585  0.47434542  1
  O  O22  1  0.90941095  0.36872843  0.97539538  1
  O  O23  1  0.14402515  0.12535305  0.22123370  1
  Ho  Ho24  1  0.64224714  0.62535477  0.97703290  1
  K  K25  1  0.14999178  0.62641901  0.72198373  1
  O  O26  1  0.88007325  0.39229470  0.47256395  1
  O  O27  1  0.14625917  0.12768528  0.73066849  1
  O  O28  1  0.38703528  0.36323971  0.97504991  1
  O  O29  1  0.64836305  0.62332052  0.24238947  1
  K  K30  1  0.64699882  0.12767364  0.22961321  1
  K  K31  1  0.14458413  0.62615097  0.22882320  1
