# generated using pymatgen
data_NdMgInSiHg
_symmetry_space_group_name_H-M   'P 1'
_cell_length_a   3.88348842
_cell_length_b   4.31511354
_cell_length_c   4.92889595
_cell_angle_alpha   115.85169220
_cell_angle_beta   92.66946411
_cell_angle_gamma   90.61917877
_symmetry_Int_Tables_number   1
_chemical_formula_structural   NdMgInSiHg
_chemical_formula_sum   'Nd1 Mg1 In1 Si1 Hg1'
_cell_volume   74.20594974
_cell_formula_units_Z   1
loop_
 _symmetry_equiv_pos_site_id
 _symmetry_equiv_pos_as_xyz
  1  'x, y, z'
loop_
 _atom_site_type_symbol
 _atom_site_label
 _atom_site_symmetry_multiplicity
 _atom_site_fract_x
 _atom_site_fract_y
 _atom_site_fract_z
 _atom_site_occupancy
  Nd  Nd0  1  0.55048496  0.56313974  0.99126852  1
  Si  Si1  1  0.04560304  0.22200517  0.31534803  1
  Mg  Mg2  1  0.04627785  0.88479364  0.64546311  1
  Hg  Hg3  1  0.00911883  0.66561979  0.57264322  1
  In  In4  1  0.51383948  0.15939862  0.07276015  1
