# generated using pymatgen
data_K4La2RuF12
_symmetry_space_group_name_H-M   'P 1'
_cell_length_a   5.22717524
_cell_length_b   6.15985489
_cell_length_c   6.18160486
_cell_angle_alpha   119.41584778
_cell_angle_beta   88.89118195
_cell_angle_gamma   90.44292450
_symmetry_Int_Tables_number   1
_chemical_formula_structural   K4La2RuF12
_chemical_formula_sum   'K4 La2 Ru1 F12'
_cell_volume   173.34590757
_cell_formula_units_Z   1
loop_
 _symmetry_equiv_pos_site_id
 _symmetry_equiv_pos_as_xyz
  1  'x, y, z'
loop_
 _atom_site_type_symbol
 _atom_site_label
 _atom_site_symmetry_multiplicity
 _atom_site_fract_x
 _atom_site_fract_y
 _atom_site_fract_z
 _atom_site_occupancy
  F  F0  1  0.55007970  0.73392975  0.01328006  1
  F  F1  1  0.00323677  0.04959720  0.68969476  1
  F  F2  1  0.99394280  0.56747329  0.68950558  1
  F  F3  1  0.54218996  0.73159355  0.52603292  1
  F  F4  1  0.00169837  0.05838218  0.17625163  1
  K  K5  1  0.06570598  0.55871844  0.18403272  1
  K  K6  1  0.47024202  0.23364662  0.51977968  1
  Ru  Ru7  1  0.77500927  0.89381546  0.85063523  1
  F  F8  1  0.54802901  0.22119327  0.01400121  1
  F  F9  1  0.86342013  0.08371007  0.79444146  1
  F  F10  1  0.36252281  0.08336258  0.79616547  1
  F  F11  1  0.36370191  0.08832336  0.29489142  1
  La  La12  1  0.61056787  0.83166766  0.04452091  1
  F  F13  1  0.86508679  0.58173525  0.79188001  1
  F  F14  1  0.86359978  0.58948207  0.29397625  1
  La  La15  1  0.11287882  0.33337834  0.54260838  1
  K  K16  1  0.36190510  0.58605343  0.79549545  1
  F  F17  1  0.35860467  0.58380157  0.29502690  1
  K  K18  1  0.86231309  0.08276704  0.29358649  1
