# generated using pymatgen
data_Na2Ca2NdY7Cu5NiIr8(SeO3)2
_symmetry_space_group_name_H-M   'P 1'
_cell_length_a   7.21713209
_cell_length_b   7.05571508
_cell_length_c   7.58918571
_cell_angle_alpha   81.29045105
_cell_angle_beta   88.71766663
_cell_angle_gamma   105.32525635
_symmetry_Int_Tables_number   1
_chemical_formula_structural   Na2Ca2NdY7Cu5NiIr8(SeO3)2
_chemical_formula_sum   'Na2 Ca2 Nd1 Y7 Cu5 Ni1 Ir8 Se2 O6'
_cell_volume   367.62672740
_cell_formula_units_Z   1
loop_
 _symmetry_equiv_pos_site_id
 _symmetry_equiv_pos_as_xyz
  1  'x, y, z'
loop_
 _atom_site_type_symbol
 _atom_site_label
 _atom_site_symmetry_multiplicity
 _atom_site_fract_x
 _atom_site_fract_y
 _atom_site_fract_z
 _atom_site_occupancy
  Y  Y0  1  0.81333399  0.50800383  0.72892505  1
  Y  Y1  1  0.79230511  0.63048452  0.20940904  1
  Ir  Ir2  1  0.08737883  0.00623601  0.99918807  1
  Ir  Ir3  1  0.59087366  0.25758141  0.49973491  1
  Y  Y4  1  0.28855339  0.37872082  0.70471609  1
  Ir  Ir5  1  0.52015507  0.63381463  0.93202609  1
  Ir  Ir6  1  0.01716022  0.87726945  0.43729103  1
  Ir  Ir7  1  0.51822346  0.13015568  0.93521148  1
  Y  Y8  1  0.81230140  0.00547856  0.72542542  1
  Ir  Ir9  1  0.58914167  0.75669050  0.49668446  1
  Nd  Nd10  1  0.31575593  0.25751209  0.23117833  1
  Ir  Ir11  1  0.01767142  0.38261241  0.43597150  1
  Y  Y12  1  0.31277177  0.75416714  0.22722325  1
  Y  Y13  1  0.79544371  0.12796484  0.20673235  1
  Ir  Ir14  1  0.08831570  0.50804651  0.99515319  1
  Y  Y15  1  0.29202956  0.87679380  0.70807838  1
  O  O16  1  0.28971970  0.68716824  0.75697732  1
  Cu  Cu17  1  0.36216861  0.15227622  0.78972548  1
  Na  Na18  1  0.86356348  0.46223429  0.93025339  1
  Ca  Ca19  1  0.79161912  0.82566768  0.69062638  1
  O  O20  1  0.86064976  0.15213735  0.78505772  1
  Cu  Cu21  1  0.29120857  0.53787881  0.59169024  1
  O  O22  1  0.82571232  0.81094944  0.97250748  1
  Ca  Ca23  1  0.32892725  0.32010263  0.21427469  1
  Cu  Cu24  1  0.80745870  0.05846770  0.33466619  1
  O  O25  1  0.82933497  0.22019234  0.15789278  1
  Ni  Ni26  1  0.83218539  0.06168338  0.00204873  1
  Cu  Cu27  1  0.32714984  0.78246135  0.97569889  1
  Cu  Cu28  1  0.00946264  0.21982665  0.57643569  1
  O  O29  1  0.32402128  0.56973857  0.09550010  1
  Se  Se30  1  0.78727204  0.47029591  0.47269648  1
  Se  Se31  1  0.30857542  0.96408468  0.43958369  1
  O  O32  1  0.34085557  0.04383636  0.98813617  1
  Na  Na33  1  0.82642531  0.69704020  0.22367252  1
