# generated using pymatgen
data_Ba2Li3Ca2Lu2AlB3PHWO20
_symmetry_space_group_name_H-M   'P 1'
_cell_length_a   5.37327147
_cell_length_b   5.44869804
_cell_length_c   5.98238277
_cell_angle_alpha   74.46430969
_cell_angle_beta   84.52135468
_cell_angle_gamma   86.65480042
_symmetry_Int_Tables_number   1
_chemical_formula_structural   Ba2Li3Ca2Lu2AlB3PHWO20
_chemical_formula_sum   'Ba2 Li3 Ca2 Lu2 Al1 B3 P1 H1 W1 O20'
_cell_volume   167.87995157
_cell_formula_units_Z   1
loop_
 _symmetry_equiv_pos_site_id
 _symmetry_equiv_pos_as_xyz
  1  'x, y, z'
loop_
 _atom_site_type_symbol
 _atom_site_label
 _atom_site_symmetry_multiplicity
 _atom_site_fract_x
 _atom_site_fract_y
 _atom_site_fract_z
 _atom_site_occupancy
  Lu  Lu0  1  0.94917780  0.20213908  0.94990253  1
  Lu  Lu1  1  0.14750847  0.74446529  0.60803026  1
  B  B2  1  0.94260019  0.21425924  0.39473745  1
  B  B3  1  0.65516627  0.76729918  0.64194191  1
  O  O4  1  0.77882934  0.75852650  0.42884481  1
  Al  Al5  1  0.70531338  0.69667768  0.15140760  1
  O  O6  1  0.90620238  0.13285081  0.62062985  1
  O  O7  1  0.14545304  0.11595287  0.28468424  1
  B  B8  1  0.43863577  0.12350234  0.82816285  1
  O  O9  1  0.45112294  0.95822299  0.65948045  1
  Li  Li10  1  0.44220221  0.24207737  0.29696724  1
  H  H11  1  0.21834652  0.69050044  0.14585936  1
  O  O12  1  0.05314579  0.77926940  0.02188031  1
  O  O13  1  0.74341524  0.61052746  0.83956212  1
  O  O14  1  0.59267479  0.03237356  0.01877263  1
  O  O15  1  0.36667359  0.63045692  0.27573174  1
  O  O16  1  0.77468163  0.35552055  0.25130674  1
  O  O17  1  0.28483233  0.36197504  0.78460133  1
  Li  Li18  1  0.60975647  0.93626463  0.70734531  1
  W  W19  1  0.11368677  0.43953428  0.68542707  1
  Ca  Ca20  1  0.09712342  0.91171020  0.46937844  1
  O  O21  1  0.35519895  0.68101770  0.69370288  1
  O  O22  1  0.73214024  0.72606570  0.28251046  1
  O  O23  1  0.11283582  0.43457329  0.95006639  1
  O  O24  1  0.16191804  0.48683599  0.43286818  1
  Ba  Ba25  1  0.61249262  0.44392872  0.95317632  1
  Ca  Ca26  1  0.58766478  0.41857165  0.46975058  1
  O  O27  1  0.87331098  0.19824602  0.66359872  1
  P  P28  1  0.64055532  0.96237463  0.20577171  1
  O  O29  1  0.35214654  0.19552417  0.67322433  1
  Li  Li30  1  0.08774018  0.39466903  0.20978683  1
  O  O31  1  0.87323272  0.67605388  0.67955184  1
  O  O32  1  0.61967295  0.93153787  0.99624139  1
  Ba  Ba33  1  0.12495609  0.93357444  0.95206690  1
  O  O34  1  0.82204360  0.15869579  0.25070187  1
  O  O35  1  0.39870092  0.04964964  0.27287748  1
