# generated using pymatgen
data_LiLaDyY2TiFe4CuNi(P3S2)2
_symmetry_space_group_name_H-M   'P 1'
_cell_length_a   3.65285683
_cell_length_b   4.27479839
_cell_length_c   7.79970837
_cell_angle_alpha   90.94515991
_cell_angle_beta   91.23073578
_cell_angle_gamma   90.46115112
_symmetry_Int_Tables_number   1
_chemical_formula_structural   LiLaDyY2TiFe4CuNi(P3S2)2
_chemical_formula_sum   'Li1 La1 Y2 Dy1 Ti1 Fe4 Cu1 Ni1 P6 S4'
_cell_volume   121.74524670
_cell_formula_units_Z   1
loop_
 _symmetry_equiv_pos_site_id
 _symmetry_equiv_pos_as_xyz
  1  'x, y, z'
loop_
 _atom_site_type_symbol
 _atom_site_label
 _atom_site_symmetry_multiplicity
 _atom_site_fract_x
 _atom_site_fract_y
 _atom_site_fract_z
 _atom_site_occupancy
  S  S0  1  0.77050227  0.63677007  0.13721667  1
  Ni  Ni1  1  0.27687642  0.63324833  0.36417276  1
  S  S2  1  0.76655364  0.63713628  0.61535114  1
  S  S3  1  0.27486348  0.13952152  0.86166030  1
  Cu  Cu4  1  0.26935181  0.64351147  0.89390057  1
  Li  Li5  1  0.78113717  0.13703866  0.12634282  1
  Ti  Ti6  1  0.77360272  0.12872955  0.63138866  1
  S  S7  1  0.26675406  0.13689214  0.39552832  1
  Fe  Fe8  1  0.62067413  0.58509183  0.24027877  1
  Fe  Fe9  1  0.16085801  0.49563313  0.06674775  1
  P  P10  1  0.30277431  0.23380508  0.93123877  1
  Y  Y11  1  0.88300812  0.05118315  0.13972497  1
  La  La12  1  0.99427015  0.84529769  0.81999511  1
  Fe  Fe13  1  0.26618525  0.29337242  0.71921211  1
  P  P14  1  0.57380426  0.67703503  0.03617666  1
  Dy  Dy15  1  0.08078606  0.66839772  0.49815902  1
  P  P16  1  0.45927006  0.89527088  0.33235148  1
  Y  Y17  1  0.81110430  0.20355761  0.46262604  1
  P  P18  1  0.21690007  0.40655723  0.27036640  1
  Fe  Fe19  1  0.70846790  0.40795967  0.89648604  1
  P  P20  1  0.67616129  0.46721679  0.68564624  1
  P  P21  1  0.42684069  0.97665924  0.61844683  1
