# generated using pymatgen
data_Ba2Ca7DyY2Cu5S8Cl3O7
_symmetry_space_group_name_H-M   'P 1'
_cell_length_a   4.10069275
_cell_length_b   6.55715418
_cell_length_c   14.66501236
_cell_angle_alpha   98.97206116
_cell_angle_beta   98.05119324
_cell_angle_gamma   88.93015289
_symmetry_Int_Tables_number   1
_chemical_formula_structural   Ba2Ca7DyY2Cu5S8Cl3O7
_chemical_formula_sum   'Ba2 Ca7 Dy1 Y2 Cu5 S8 Cl3 O7'
_cell_volume   385.65969655
_cell_formula_units_Z   1
loop_
 _symmetry_equiv_pos_site_id
 _symmetry_equiv_pos_as_xyz
  1  'x, y, z'
loop_
 _atom_site_type_symbol
 _atom_site_label
 _atom_site_symmetry_multiplicity
 _atom_site_fract_x
 _atom_site_fract_y
 _atom_site_fract_z
 _atom_site_occupancy
  Cu  Cu0  1  0.76423895  0.74001253  0.20887581  1
  Dy  Dy1  1  0.02687283  0.58624393  0.73355389  1
  O  O2  1  0.77696997  0.48196328  0.25058222  1
  Cu  Cu3  1  0.92980397  0.85471028  0.55269456  1
  Ba  Ba4  1  0.29908365  0.25075856  0.28768274  1
  O  O5  1  0.48492551  0.43255854  0.67556286  1
  O  O6  1  0.98833233  0.88168973  0.67495954  1
  O  O7  1  0.04931542  0.29738447  0.80133343  1
  Cu  Cu8  1  0.10428848  0.26853418  0.92394757  1
  Ba  Ba9  1  0.17929915  0.81208634  0.04422729  1
  Cl  Cl10  1  0.89563364  0.17396550  0.47465849  1
  O  O11  1  0.73901391  0.02265671  0.17096779  1
  Ca  Ca12  1  0.51351726  0.10966874  0.73413354  1
  Cu  Cu13  1  0.43960118  0.39420909  0.54726279  1
  O  O14  1  0.69109559  0.58461767  0.08013008  1
  Cu  Cu15  1  0.71364444  0.28759465  0.10224883  1
  Cl  Cl16  1  0.39712521  0.67430073  0.47629350  1
  Cl  Cl17  1  0.58907491  0.82628167  0.86414737  1
  O  O18  1  0.17813137  0.23303545  0.04710451  1
  Y  Y19  1  0.90851665  0.18106911  0.23632957  1
  S  S20  1  0.66049904  0.56040585  0.79253137  1
  S  S21  1  0.67158735  0.04867702  0.54081488  1
  Ca  Ca22  1  0.40683663  0.42994756  0.61105651  1
  S  S23  1  0.66450512  0.05994503  0.04975408  1
  Ca  Ca24  1  0.40774247  0.43206459  0.10939264  1
  S  S25  1  0.66354728  0.54800743  0.30245203  1
  Ca  Ca26  1  0.40715736  0.92769909  0.85943043  1
  Y  Y27  1  0.91205555  0.67769486  0.48495233  1
  Ca  Ca28  1  0.40702856  0.93108213  0.36053988  1
  S  S29  1  0.16094720  0.80138701  0.66975540  1
  S  S30  1  0.15197721  0.80809414  0.17914188  1
  Ca  Ca31  1  0.90378052  0.18022113  0.73964864  1
  S  S32  1  0.15331458  0.30129781  0.93154335  1
  S  S33  1  0.15209094  0.31007555  0.41983423  1
  Ca  Ca34  1  0.90758300  0.68019235  0.98792040  1
