# generated using pymatgen
data_RbTlInFe2BiAsP2WO20
_symmetry_space_group_name_H-M   'P 1'
_cell_length_a   5.23383474
_cell_length_b   5.55833912
_cell_length_c   6.20095682
_cell_angle_alpha   90.27324677
_cell_angle_beta   92.46199799
_cell_angle_gamma   89.82433319
_symmetry_Int_Tables_number   1
_chemical_formula_structural   RbTlInFe2BiAsP2WO20
_chemical_formula_sum   'Rb1 Tl1 In1 Fe2 Bi1 As1 P2 W1 O20'
_cell_volume   180.22538637
_cell_formula_units_Z   1
loop_
 _symmetry_equiv_pos_site_id
 _symmetry_equiv_pos_as_xyz
  1  'x, y, z'
loop_
 _atom_site_type_symbol
 _atom_site_label
 _atom_site_symmetry_multiplicity
 _atom_site_fract_x
 _atom_site_fract_y
 _atom_site_fract_z
 _atom_site_occupancy
  O  O0  1  0.62513816  0.14148301  0.23386793  1
  O  O1  1  0.12316729  0.39167374  0.48934320  1
  O  O2  1  0.62507337  0.13788638  0.72976482  1
  Bi  Bi3  1  0.62723231  0.39060280  0.48891929  1
  Rb  Rb4  1  0.12092204  0.38955986  0.98568696  1
  In  In5  1  0.62355995  0.88394111  0.98928541  1
  O  O6  1  0.62958157  0.63082832  0.73720300  1
  O  O7  1  0.12069131  0.88669062  0.98499030  1
  O  O8  1  0.62956160  0.63815325  0.23917745  1
  Tl  Tl9  1  0.12490111  0.88706666  0.48458621  1
  O  O10  1  0.46333781  0.17633516  0.57354969  1
  Fe  Fe11  1  0.87943506  0.59239280  0.80054182  1
  O  O12  1  0.33603904  0.10022496  0.98088622  1
  O  O13  1  0.97327095  0.60281295  0.00565814  1
  O  O14  1  0.56439644  0.80170316  0.13017574  1
  O  O15  1  0.85705352  0.57354826  0.56834471  1
  P  P16  1  0.86775678  0.71109891  0.14363825  1
  O  O17  1  0.15758164  0.36543030  0.77094966  1
  P  P18  1  0.36859119  0.02406717  0.13141856  1
  W  W19  1  0.42371216  0.14298980  0.76712829  1
  O  O20  1  0.44564322  0.21095604  0.25165418  1
  O  O21  1  0.15443540  0.87100184  0.71493143  1
  O  O22  1  0.88217473  0.53548539  0.27874437  1
  O  O23  1  0.91986495  0.06227797  0.44076338  1
  O  O24  1  0.65013647  0.86366940  0.79360300  1
  O  O25  1  0.35849577  0.65714598  0.43562686  1
  O  O26  1  0.65263379  0.35592222  0.82808292  1
  Fe  Fe27  1  0.64010578  0.35455951  0.41424778  1
  O  O28  1  0.05731464  0.94108307  0.17350891  1
  As  As29  1  0.08081693  0.79961163  0.52540714  1
