# generated using pymatgen
data_K3BaFe2As3PO15F
_symmetry_space_group_name_H-M   'P 1'
_cell_length_a   6.13813066
_cell_length_b   6.35820627
_cell_length_c   6.98156548
_cell_angle_alpha   110.52844238
_cell_angle_beta   100.71127319
_cell_angle_gamma   105.39868164
_symmetry_Int_Tables_number   1
_chemical_formula_structural   K3BaFe2As3PO15F
_chemical_formula_sum   'K3 Ba1 Fe2 As3 P1 O15 F1'
_cell_volume   233.97232529
_cell_formula_units_Z   1
loop_
 _symmetry_equiv_pos_site_id
 _symmetry_equiv_pos_as_xyz
  1  'x, y, z'
loop_
 _atom_site_type_symbol
 _atom_site_label
 _atom_site_symmetry_multiplicity
 _atom_site_fract_x
 _atom_site_fract_y
 _atom_site_fract_z
 _atom_site_occupancy
  As  As0  1  0.31632936  0.01406583  0.33993578  1
  O  O1  1  0.95116687  0.47454980  0.14398120  1
  K  K2  1  0.80208290  0.11326063  0.27892408  1
  As  As3  1  0.90545654  0.59720242  0.94961953  1
  O  O4  1  0.45418525  0.81915176  0.29998612  1
  O  O5  1  0.98531264  0.47262177  0.72302592  1
  O  O6  1  0.19927897  0.03106476  0.53935534  1
  O  O7  1  0.45208567  0.27590001  0.34902030  1
  O  O8  1  0.66786468  0.64797556  0.90690851  1
  O  O9  1  0.10340521  0.90290904  0.08053586  1
  K  K10  1  0.32556242  0.63420266  0.57999241  1
  K  K11  1  0.30894223  0.35272220  0.97342968  1
  O  O12  1  0.25267413  0.82795274  0.57851088  1
  As  As13  1  0.70850819  0.27816841  0.60551500  1
  Fe  Fe14  1  0.97542751  0.57436240  0.46868792  1
  Ba  Ba15  1  0.04167265  0.94241655  0.14995968  1
  Fe  Fe16  1  0.44297183  0.50554997  0.16717194  1
  P  P17  1  0.41313693  0.94740802  0.83629918  1
  O  O18  1  0.46646908  0.29045153  0.39510807  1
  O  O19  1  0.32743108  0.18053076  0.93034959  1
  O  O20  1  0.38060805  0.74951839  0.98823202  1
  O  O21  1  0.74936020  0.64905018  0.27038348  1
  O  O22  1  0.91593528  0.22680853  0.47402114  1
  O  O23  1  0.86582881  0.59531474  0.73935831  1
  F  F24  1  0.11382087  0.46739471  0.20048745  1
  O  O25  1  0.66477424  0.02581772  0.86331111  1
