# generated using pymatgen
data_Li2Ca2Y2Al2Tl2NiP4Ru
_symmetry_space_group_name_H-M   'P 1'
_cell_length_a   4.56533241
_cell_length_b   6.12340164
_cell_length_c   6.22116804
_cell_angle_alpha   118.57507324
_cell_angle_beta   90.63864136
_cell_angle_gamma   89.32585144
_symmetry_Int_Tables_number   1
_chemical_formula_structural   Li2Ca2Y2Al2Tl2NiP4Ru
_chemical_formula_sum   'Li2 Ca2 Y2 Al2 Tl2 Ni1 P4 Ru1'
_cell_volume   152.71704099
_cell_formula_units_Z   1
loop_
 _symmetry_equiv_pos_site_id
 _symmetry_equiv_pos_as_xyz
  1  'x, y, z'
loop_
 _atom_site_type_symbol
 _atom_site_label
 _atom_site_symmetry_multiplicity
 _atom_site_fract_x
 _atom_site_fract_y
 _atom_site_fract_z
 _atom_site_occupancy
  P  P0  1  0.46889818  0.89865315  0.04878440  1
  P  P1  1  0.97085959  0.40091279  0.05681030  1
  Al  Al2  1  0.97170353  0.93570441  0.85595918  1
  Ca  Ca3  1  0.47222093  0.43119910  0.35190606  1
  P  P4  1  0.96509975  0.46968815  0.65634727  1
  Ca  Ca5  1  0.96776843  0.93568259  0.35699022  1
  P  P6  1  0.46844336  0.97239345  0.65729070  1
  Al  Al7  1  0.47441316  0.43582749  0.85269535  1
  Ru  Ru8  1  0.74422044  0.56091404  0.79594779  1
  Tl  Tl9  1  0.24253006  0.74610269  0.12237969  1
  Tl  Tl10  1  0.74096745  0.05460417  0.80621952  1
  Ni  Ni11  1  0.24020687  0.22530416  0.12424668  1
  Li  Li12  1  0.74311763  0.06033175  0.28514755  1
  Li  Li13  1  0.24190648  0.74138820  0.64104307  1
  Y  Y14  1  0.74266070  0.55219448  0.29561567  1
  Y  Y15  1  0.23876387  0.24284376  0.62589002  1
