# generated using pymatgen
data_NaNdMn3Ag3(SeO)4
_symmetry_space_group_name_H-M   'P 1'
_cell_length_a   4.88188648
_cell_length_b   4.76465511
_cell_length_c   4.56543255
_cell_angle_alpha   89.80388641
_cell_angle_beta   92.59686279
_cell_angle_gamma   95.61218262
_symmetry_Int_Tables_number   1
_chemical_formula_structural   NaNdMn3Ag3(SeO)4
_chemical_formula_sum   'Na1 Nd1 Mn3 Ag3 Se4 O4'
_cell_volume   105.57665234
_cell_formula_units_Z   1
loop_
 _symmetry_equiv_pos_site_id
 _symmetry_equiv_pos_as_xyz
  1  'x, y, z'
loop_
 _atom_site_type_symbol
 _atom_site_label
 _atom_site_symmetry_multiplicity
 _atom_site_fract_x
 _atom_site_fract_y
 _atom_site_fract_z
 _atom_site_occupancy
  Mn  Mn0  1  0.61272919  0.73576283  0.09983410  1
  Mn  Mn1  1  0.61185265  0.23867279  0.59948796  1
  O  O2  1  0.11414238  0.74024808  0.09466605  1
  O  O3  1  0.61137682  0.23517704  0.09893084  1
  Na  Na4  1  0.11315703  0.23435900  0.10276446  1
  O  O5  1  0.11157630  0.22814882  0.59827018  1
  Mn  Mn6  1  0.12107643  0.73360509  0.60103089  1
  O  O7  1  0.61037368  0.72705454  0.60124087  1
  Nd  Nd8  1  0.16028778  0.05010405  0.96212816  1
  Ag  Ag9  1  0.90231955  0.30155990  0.46308285  1
  Ag  Ag10  1  0.65633714  0.54674476  0.96308857  1
  Se  Se11  1  0.14940271  0.54637790  0.95704722  1
  Se  Se12  1  0.90474558  0.79488117  0.45732531  1
  Ag  Ag13  1  0.41072610  0.79935116  0.46075058  1
  Se  Se14  1  0.40603641  0.29623100  0.46523643  1
  Se  Se15  1  0.66118801  0.05075441  0.96951663  1
