# generated using pymatgen
data_KBa3CaYbU2Mn3Fe2Si2AgO22
_symmetry_space_group_name_H-M   'P 1'
_cell_length_a   6.26338196
_cell_length_b   6.45605421
_cell_length_c   7.57637501
_cell_angle_alpha   89.40682220
_cell_angle_beta   92.47433472
_cell_angle_gamma   88.56581116
_symmetry_Int_Tables_number   1
_chemical_formula_structural   KBa3CaYbU2Mn3Fe2Si2AgO22
_chemical_formula_sum   'K1 Ba3 Ca1 Yb1 U2 Mn3 Fe2 Si2 Ag1 O22'
_cell_volume   305.96228794
_cell_formula_units_Z   1
loop_
 _symmetry_equiv_pos_site_id
 _symmetry_equiv_pos_as_xyz
  1  'x, y, z'
loop_
 _atom_site_type_symbol
 _atom_site_label
 _atom_site_symmetry_multiplicity
 _atom_site_fract_x
 _atom_site_fract_y
 _atom_site_fract_z
 _atom_site_occupancy
  Mn  Mn0  1  0.41553578  0.42525375  0.67634130  1
  O  O1  1  0.14844739  0.70138365  0.18064529  1
  O  O2  1  0.41469467  0.42584196  0.43732494  1
  Mn  Mn3  1  0.91530520  0.92705113  0.17859071  1
  O  O4  1  0.41393536  0.42621011  0.92274433  1
  U  U5  1  0.41289908  0.42688385  0.17721757  1
  O  O6  1  0.14501950  0.15691575  0.67744386  1
  O  O7  1  0.68592823  0.69941103  0.68278182  1
  O  O8  1  0.64803660  0.65751612  0.18308873  1
  Ba  Ba9  1  0.41539645  0.92868429  0.93189359  1
  O  O10  1  0.18624917  0.66315502  0.67848599  1
  O  O11  1  0.91737837  0.92881280  0.94294327  1
  O  O12  1  0.91099524  0.93189621  0.42261580  1
  U  U13  1  0.91617244  0.92695653  0.68359739  1
  O  O14  1  0.64220828  0.19403338  0.67681295  1
  Ba  Ba15  1  0.41594011  0.92912835  0.43328553  1
  K  K16  1  0.91315001  0.42636517  0.92925286  1
  Ba  Ba17  1  0.91343546  0.43440297  0.42970833  1
  O  O18  1  0.18595350  0.19861497  0.17995282  1
  O  O19  1  0.67838913  0.15675604  0.18641788  1
  O  O20  1  0.11822055  0.71126622  0.40501767  1
  Fe  Fe21  1  0.22556043  0.63202500  0.65817618  1
  Si  Si22  1  0.25902942  0.67383134  0.18326375  1
  O  O23  1  0.67547679  0.03054448  0.58558482  1
  Mn  Mn24  1  0.11625866  0.14763626  0.15876183  1
  Fe  Fe25  1  0.59570974  0.12860721  0.93150198  1
  Si  Si26  1  0.55634201  0.12320051  0.41439629  1
  O  O27  1  0.31655738  0.99022710  0.32023615  1
  O  O28  1  0.29229617  0.99249667  0.87445873  1
  Ca  Ca29  1  0.06454512  0.13734801  0.66155565  1
  O  O30  1  0.89433336  0.27069539  0.01966400  1
  O  O31  1  0.47416565  0.49763766  0.12837984  1
  O  O32  1  0.67093354  0.03142652  0.17432047  1
  O  O33  1  0.13642223  0.61027497  0.94592571  1
  Ag  Ag34  1  0.74583566  0.59627217  0.90887791  1
  O  O35  1  0.51490897  0.43342641  0.56598270  1
  O  O36  1  0.02136589  0.36239213  0.47379869  1
  Yb  Yb37  1  0.75987637  0.58057052  0.39194936  1
