# generated using pymatgen
data_Ti6ZnPbSe4S7
_symmetry_space_group_name_H-M   'P 1'
_cell_length_a   6.12650824
_cell_length_b   6.21735525
_cell_length_c   6.54297781
_cell_angle_alpha   91.03198242
_cell_angle_beta   76.87065887
_cell_angle_gamma   81.78866577
_symmetry_Int_Tables_number   1
_chemical_formula_structural   Ti6ZnPbSe4S7
_chemical_formula_sum   'Ti6 Zn1 Pb1 Se4 S7'
_cell_volume   239.89402525
_cell_formula_units_Z   1
loop_
 _symmetry_equiv_pos_site_id
 _symmetry_equiv_pos_as_xyz
  1  'x, y, z'
loop_
 _atom_site_type_symbol
 _atom_site_label
 _atom_site_symmetry_multiplicity
 _atom_site_fract_x
 _atom_site_fract_y
 _atom_site_fract_z
 _atom_site_occupancy
  S  S0  1  0.27865371  0.30056900  0.04555717  1
  S  S1  1  0.71211576  0.45917368  0.33577311  1
  S  S2  1  0.85029852  0.16670579  0.75633460  1
  S  S3  1  0.13066217  0.60358065  0.62430614  1
  S  S4  1  0.56198651  0.74279416  0.90523148  1
  Ti  Ti5  1  0.78857589  0.80794287  0.55289793  1
  Ti  Ti6  1  0.06373297  0.25184086  0.40550357  1
  S  S7  1  0.99838740  0.89286184  0.19651137  1
  Ti  Ti8  1  0.21254125  0.95126873  0.83884716  1
  Zn  Zn9  1  0.63855737  0.10068460  0.11952379  1
  Ti  Ti10  1  0.48760945  0.38277361  0.69095886  1
  S  S11  1  0.42113876  0.02745185  0.47830042  1
  Pb  Pb12  1  0.19311604  0.95047861  0.73312050  1
  Se  Se13  1  0.97715169  0.75036949  0.13416830  1
  Ti  Ti14  1  0.46239570  0.63414496  0.34594625  1
  Ti  Ti15  1  0.92561001  0.26304308  0.12109330  1
  Se  Se16  1  0.40443972  0.15948667  0.32995218  1
  Se  Se17  1  0.47428456  0.32790413  0.90487283  1
  Se  Se18  1  0.90797663  0.58561635  0.55684268  1
