# generated using pymatgen
data_KSrLiMgTl2H4(Cl3O2)2
_symmetry_space_group_name_H-M   'P 1'
_cell_length_a   5.73879385
_cell_length_b   6.79596043
_cell_length_c   6.88910103
_cell_angle_alpha   71.44179535
_cell_angle_beta   64.46757507
_cell_angle_gamma   63.80878067
_symmetry_Int_Tables_number   1
_chemical_formula_structural   KSrLiMgTl2H4(Cl3O2)2
_chemical_formula_sum   'K1 Sr1 Li1 Mg1 Tl2 H4 Cl6 O4'
_cell_volume   214.81130242
_cell_formula_units_Z   1
loop_
 _symmetry_equiv_pos_site_id
 _symmetry_equiv_pos_as_xyz
  1  'x, y, z'
loop_
 _atom_site_type_symbol
 _atom_site_label
 _atom_site_symmetry_multiplicity
 _atom_site_fract_x
 _atom_site_fract_y
 _atom_site_fract_z
 _atom_site_occupancy
  Mg  Mg0  1  0.72377062  0.35928476  0.07858568  1
  Cl  Cl1  1  0.47793400  0.11917222  0.32416072  1
  Cl  Cl2  1  0.96685445  0.11597174  0.83856159  1
  Tl  Tl3  1  0.47026816  0.11339855  0.83253729  1
  Cl  Cl4  1  0.96665525  0.11654063  0.32890707  1
  Li  Li5  1  0.22706142  0.86000341  0.57945454  1
  Cl  Cl6  1  0.47522974  0.60629404  0.32639915  1
  Tl  Tl7  1  0.96702260  0.62022191  0.33106583  1
  Cl  Cl8  1  0.48363739  0.60812718  0.82892925  1
  Cl  Cl9  1  0.97016108  0.60645914  0.83774883  1
  O  O10  1  0.17167401  0.15697816  0.38388065  1
  H  H11  1  0.28860673  0.82414597  0.45823032  1
  H  H12  1  0.29955000  0.40832376  0.41307360  1
  H  H13  1  0.16686580  0.64618832  0.92895722  1
  H  H14  1  0.67330956  0.54373521  0.95797181  1
  O  O15  1  0.98495060  0.80837464  0.93730962  1
  K  K16  1  0.86568195  0.21650341  0.69089872  1
  O  O17  1  0.48682785  0.42045280  0.97916639  1
  Sr  Sr18  1  0.59506971  0.97571027  0.16577135  1
  O  O19  1  0.44822145  0.66391170  0.45516068  1
