# generated using pymatgen
data_Cs2KRbBa2ScBi2PdRhClO5F12
_symmetry_space_group_name_H-M   'P 1'
_cell_length_a   7.51089334
_cell_length_b   8.11234379
_cell_length_c   8.55103683
_cell_angle_alpha   69.04261017
_cell_angle_beta   67.38071442
_cell_angle_gamma   68.70135498
_symmetry_Int_Tables_number   1
_chemical_formula_structural   Cs2KRbBa2ScBi2PdRhClO5F12
_chemical_formula_sum   'Cs2 Rb1 K1 Ba2 Sc1 Bi2 Pd1 Rh1 Cl1 O5 F12'
_cell_volume   433.46668066
_cell_formula_units_Z   1
loop_
 _symmetry_equiv_pos_site_id
 _symmetry_equiv_pos_as_xyz
  1  'x, y, z'
loop_
 _atom_site_type_symbol
 _atom_site_label
 _atom_site_symmetry_multiplicity
 _atom_site_fract_x
 _atom_site_fract_y
 _atom_site_fract_z
 _atom_site_occupancy
  Cs  Cs0  1  0.89817393  0.16246469  0.47471443  1
  F  F1  1  0.12088868  0.92225105  0.83764231  1
  F  F2  1  0.49587655  0.56669277  0.94062567  1
  F  F3  1  0.10708514  0.16227254  0.06654128  1
  Bi  Bi4  1  0.25997728  0.40678063  0.55709857  1
  Cl  Cl5  1  0.98614281  0.72396404  0.57534319  1
  F  F6  1  0.99067020  0.29170036  0.76054370  1
  Bi  Bi7  1  0.41840979  0.27140036  0.05336638  1
  Sc  Sc8  1  0.92087501  0.09037668  0.98661917  1
  F  F9  1  0.69430971  0.24585442  0.13600814  1
  F  F10  1  0.46453843  0.14124003  0.57610977  1
  Rb  Rb11  1  0.50485688  0.78807020  0.57052916  1
  Cs  Cs12  1  0.86235917  0.60302377  0.01927060  1
  F  F13  1  0.53941625  0.52633953  0.38298261  1
  F  F14  1  0.85846740  0.88339275  0.19621134  1
  F  F15  1  0.33781144  0.42376220  0.78117675  1
  F  F16  1  0.37342355  0.00671966  0.26564777  1
  F  F17  1  0.69319570  0.08415891  0.90311599  1
  K  K18  1  0.26055598  0.77024329  0.17337474  1
  F  F19  1  0.19451165  0.40799442  0.28542414  1
  Ba  Ba20  1  0.15314148  0.88112384  0.14990661  1
  O  O21  1  0.65371984  0.64609462  0.88513827  1
  O  O22  1  0.15399465  0.91487372  0.66784459  1
  Pd  Pd23  1  0.65598273  0.39248008  0.14256737  1
  Rh  Rh24  1  0.66168672  0.88502032  0.63508391  1
  O  O25  1  0.65685815  0.13727421  0.40123901  1
  Ba  Ba26  1  0.15449087  0.40502861  0.63225466  1
  O  O27  1  0.15733214  0.36121637  0.11517002  1
  O  O28  1  0.65560371  0.63832033  0.39404458  1
