# generated using pymatgen
data_Rb6LuV2Cr5Ni2(OF)10
_symmetry_space_group_name_H-M   'P 1'
_cell_length_a   7.43347597
_cell_length_b   8.08201504
_cell_length_c   8.33361244
_cell_angle_alpha   109.48804474
_cell_angle_beta   89.38188171
_cell_angle_gamma   89.16421509
_symmetry_Int_Tables_number   1
_chemical_formula_structural   Rb6LuV2Cr5Ni2(OF)10
_chemical_formula_sum   'Rb6 Lu1 V2 Cr5 Ni2 O10 F10'
_cell_volume   471.86462566
_cell_formula_units_Z   1
loop_
 _symmetry_equiv_pos_site_id
 _symmetry_equiv_pos_as_xyz
  1  'x, y, z'
loop_
 _atom_site_type_symbol
 _atom_site_label
 _atom_site_symmetry_multiplicity
 _atom_site_fract_x
 _atom_site_fract_y
 _atom_site_fract_z
 _atom_site_occupancy
  Rb  Rb0  1  0.58672786  0.45267767  0.45359141  1
  O  O1  1  0.49933037  0.57949811  0.84063470  1
  F  F2  1  0.34714344  0.14163870  0.28014708  1
  F  F3  1  0.81032908  0.77758050  0.61465394  1
  V  V4  1  0.57168370  0.44727242  0.92323542  1
  F  F5  1  0.33551142  0.33858123  0.94697088  1
  V  V6  1  0.06276104  0.10782418  0.24672125  1
  F  F7  1  0.13430460  0.95614862  0.00830060  1
  Rb  Rb8  1  0.53128058  0.96408594  0.90874946  1
  F  F9  1  0.02901067  0.35438290  0.42450032  1
  F  F10  1  0.64531392  0.21622485  0.73344445  1
  Rb  Rb11  1  0.08578686  0.61405104  0.75561368  1
  Rb  Rb12  1  0.04078592  0.09671871  0.73551321  1
  Rb  Rb13  1  0.08830876  0.60785890  0.26334465  1
  F  F14  1  0.30606595  0.79487073  0.57678437  1
  O  O15  1  0.00598978  0.98383033  0.34906262  1
  F  F16  1  0.54112679  0.58511758  0.17272374  1
  F  F17  1  0.81307340  0.14842902  0.15746278  1
  Rb  Rb18  1  0.58355409  0.93626642  0.41461194  1
  F  F19  1  0.85229897  0.47262529  0.95708585  1
  O  O20  1  0.45938906  0.36338690  0.51742607  1
  Cr  Cr21  1  0.97007632  0.35737601  0.51744914  1
  Ni  Ni22  1  0.59929597  0.48624679  0.77603155  1
  Ni  Ni23  1  0.72115165  0.11882779  0.02992392  1
  Cr  Cr24  1  0.21906273  0.60837311  0.02772925  1
  O  O25  1  0.95802879  0.85584450  0.51328099  1
  O  O26  1  0.59219354  0.98925346  0.77252585  1
  O  O27  1  0.33585426  0.73621011  0.27328536  1
  Cr  Cr28  1  0.84813583  0.73666459  0.27457142  1
  Cr  Cr29  1  0.33907950  0.23300761  0.27197769  1
  Cr  Cr30  1  0.45837998  0.86313486  0.51521313  1
  O  O31  1  0.21906728  0.11577620  0.02940246  1
  O  O32  1  0.84064573  0.23627807  0.27224278  1
  Lu  Lu33  1  0.09132758  0.98929960  0.77033883  1
  O  O34  1  0.71590769  0.61191142  0.02660177  1
  O  O35  1  0.08937096  0.48723781  0.77332091  1
