# generated using pymatgen
data_K2LiTmCuNi2BAs2(HO6)2
_symmetry_space_group_name_H-M   'P 1'
_cell_length_a   5.39522266
_cell_length_b   5.45308065
_cell_length_c   6.21356344
_cell_angle_alpha   116.10601044
_cell_angle_beta   91.29261780
_cell_angle_gamma   91.18642426
_symmetry_Int_Tables_number   1
_chemical_formula_structural   K2LiTmCuNi2BAs2(HO6)2
_chemical_formula_sum   'K2 Li1 Tm1 Cu1 Ni2 B1 As2 H2 O12'
_cell_volume   164.01965515
_cell_formula_units_Z   1
loop_
 _symmetry_equiv_pos_site_id
 _symmetry_equiv_pos_as_xyz
  1  'x, y, z'
loop_
 _atom_site_type_symbol
 _atom_site_label
 _atom_site_symmetry_multiplicity
 _atom_site_fract_x
 _atom_site_fract_y
 _atom_site_fract_z
 _atom_site_occupancy
  Cu  Cu0  1  0.29455000  0.58105862  0.72420251  1
  As  As1  1  0.81830347  0.85526443  0.03956500  1
  K  K2  1  0.29131612  0.23213781  0.00280634  1
  O  O3  1  0.46271512  0.21725191  0.57074201  1
  O  O4  1  0.95150048  0.55835372  0.85906446  1
  O  O5  1  0.49637660  0.78554696  0.08933046  1
  O  O6  1  0.79382813  0.07246724  0.93906558  1
  O  O7  1  0.99461067  0.00053549  0.31725067  1
  As  As8  1  0.30627111  0.92282426  0.37402937  1
  Li  Li9  1  0.78570741  0.21382725  0.71632981  1
  O  O10  1  0.28882813  0.68933213  0.46549851  1
  K  K11  1  0.78832704  0.53735745  0.42291194  1
  B  B12  1  0.75678724  0.84592205  0.82409590  1
  O  O13  1  0.52338749  0.00750012  0.02388640  1
  H  H14  1  0.52084082  0.74407643  0.45919278  1
  Tm  Tm15  1  0.24367501  0.35446066  0.83138126  1
  O  O16  1  0.40276116  0.58775228  0.45020127  1
  H  H17  1  0.03509369  0.29641476  0.40849629  1
  O  O18  1  0.74572337  0.96270746  0.53399163  1
  O  O19  1  0.70944315  0.53011864  0.86217338  1
  O  O20  1  0.04100663  0.38394058  0.23056899  1
  Ni  Ni21  1  0.61524498  0.29338062  0.24282351  1
  Ni  Ni22  1  0.12225412  0.82037091  0.23458754  1
  O  O23  1  0.05402344  0.89056236  0.86265248  1
