# generated using pymatgen
data_K2RbNa2LiCaTiBeVCuReNiBiO19
_symmetry_space_group_name_H-M   'P 1'
_cell_length_a   6.04195213
_cell_length_b   6.37665176
_cell_length_c   6.77661371
_cell_angle_alpha   61.25160980
_cell_angle_beta   60.90478516
_cell_angle_gamma   63.23367310
_symmetry_Int_Tables_number   1
_chemical_formula_structural   K2RbNa2LiCaTiBeVCuReNiBiO19
_chemical_formula_sum
'K2 Rb1 Na2 Li1 Ca1 Ti1 Be1 V1 Re1 Cu1 Ni1 Bi1 O19'
_cell_volume   191.86798585
_cell_formula_units_Z   1
loop_
 _symmetry_equiv_pos_site_id
 _symmetry_equiv_pos_as_xyz
  1  'x, y, z'
loop_
 _atom_site_type_symbol
 _atom_site_label
 _atom_site_symmetry_multiplicity
 _atom_site_fract_x
 _atom_site_fract_y
 _atom_site_fract_z
 _atom_site_occupancy
  O  O0  1  0.15088761  0.83757645  0.40489379  1
  V  V1  1  0.29245505  0.31225705  0.92136562  1
  O  O2  1  0.52142650  0.37973386  0.59029740  1
  K  K3  1  0.89811808  0.98690748  0.77074116  1
  O  O4  1  0.55417538  0.64841461  0.11720878  1
  O  O5  1  0.16329457  0.38372228  0.41703734  1
  O  O6  1  0.86052549  0.71133208  0.25447428  1
  O  O7  1  0.28451335  0.61883670  0.91637820  1
  O  O8  1  0.94844222  0.33949229  0.15613449  1
  O  O9  1  0.49126562  0.19160634  0.05070212  1
  K  K10  1  0.53620398  0.00682678  0.46188590  1
  Re  Re11  1  0.20076090  0.70351762  0.19452935  1
  Be  Be12  1  0.72176921  0.51599705  0.28360248  1
  O  O13  1  0.22104308  0.02878159  0.95029104  1
  O  O14  1  0.97754687  0.46662113  0.62592947  1
  O  O15  1  0.47594687  0.71373200  0.14392833  1
  Na  Na16  1  0.46758509  0.20457003  0.54493767  1
  Ni  Ni17  1  0.47709161  0.88221073  0.30797628  1
  Ti  Ti18  1  0.96503615  0.68288362  0.49477157  1
  Rb  Rb19  1  0.47817510  0.69062203  0.78958935  1
  Cu  Cu20  1  0.97353232  0.19440974  0.31541085  1
  Na  Na21  1  0.47187480  0.16738138  0.04176310  1
  O  O22  1  0.98418462  0.88700283  0.31414199  1
  O  O23  1  0.97275972  0.48755494  0.32977402  1
  O  O24  1  0.96265429  0.95266759  0.60210764  1
  O  O25  1  0.47085848  0.69391870  0.46244523  1
  O  O26  1  0.46897012  0.18302675  0.78756201  1
  Li  Li27  1  0.48449260  0.48266435  0.30004522  1
  O  O28  1  0.48216218  0.17918459  0.29137453  1
  Ca  Ca29  1  0.97847408  0.67349285  0.10353492  1
  O  O30  1  0.98755950  0.36781228  0.98561347  1
  O  O31  1  0.97813511  0.93338948  0.93851298  1
  Bi  Bi32  1  0.97545004  0.18706152  0.79437852  1
