# generated using pymatgen
data_YbPrSm2Ho2ErHfScUTi3NbAl4Tl2GeS3Cl2(O11F7)2
_symmetry_space_group_name_H-M   'P 1'
_cell_length_a   5.06651592
_cell_length_b   6.96818829
_cell_length_c   9.07620811
_cell_angle_alpha   103.01397705
_cell_angle_beta   93.83329773
_cell_angle_gamma   96.98336029
_symmetry_Int_Tables_number   1
_chemical_formula_structural
YbPrSm2Ho2ErHfScUTi3NbAl4Tl2GeS3Cl2(O11F7)2
_chemical_formula_sum
'Yb1 Pr1 Sm2 Ho2 Er1 Hf1 Sc1 U1 Ti3 Nb1 Al4 Tl2 Ge1 S3 Cl2 O22 F14'
_cell_volume   308.40955817
_cell_formula_units_Z   1
loop_
 _symmetry_equiv_pos_site_id
 _symmetry_equiv_pos_as_xyz
  1  'x, y, z'
loop_
 _atom_site_type_symbol
 _atom_site_label
 _atom_site_symmetry_multiplicity
 _atom_site_fract_x
 _atom_site_fract_y
 _atom_site_fract_z
 _atom_site_occupancy
  U  U0  1  0.21903297  0.55853611  0.39188588  1
  O  O1  1  0.54884171  0.79602033  0.48331946  1
  S  S2  1  0.76420730  0.46458173  0.84007108  1
  S  S3  1  0.31665975  0.55795747  0.12702456  1
  S  S4  1  0.40170199  0.99515855  0.82672036  1
  Er  Er5  1  0.68318617  0.23667379  0.06385292  1
  Hf  Hf6  1  0.69267994  0.07015023  0.40326613  1
  O  O7  1  0.88365626  0.30780515  0.29541513  1
  O  O8  1  0.97456187  0.85412139  0.30672032  1
  O  O9  1  0.08596475  0.60676605  0.59297079  1
  O  O10  1  0.44256005  0.06546415  0.19859943  1
  Ge  Ge11  1  0.15153512  0.89363873  0.15023185  1
  O  O12  1  0.92789781  0.09750898  0.58841330  1
  Sm  Sm13  1  0.85810995  0.84288073  0.72928375  1
  O  O14  1  0.93035102  0.98187852  0.00628212  1
  Sm  Sm15  1  0.24341023  0.32790467  0.70336938  1
  O  O16  1  0.43716717  0.29965386  0.48725331  1
  Al  Al17  1  0.57276642  0.43573657  0.39976442  1
  F  F18  1  0.72845584  0.75888044  0.80520815  1
  Al  Al19  1  0.92385823  0.10806711  0.89585459  1
  F  F20  1  0.75747275  0.80773580  0.99137837  1
  Tl  Tl21  1  0.20695671  0.73943233  0.16469620  1
  Tl  Tl22  1  0.28597566  0.82076144  0.63037604  1
  F  F23  1  0.64996701  0.78540289  0.48026568  1
  O  O24  1  0.74724638  0.27379203  0.89685154  1
  Al  Al25  1  0.56844580  0.46453390  0.89989012  1
  F  F26  1  0.84789133  0.38039646  0.47830093  1
  Al  Al27  1  0.89949661  0.10736607  0.39884514  1
  F  F28  1  0.22317640  0.37898582  0.32407486  1
  F  F29  1  0.26676774  0.31643513  0.98606926  1
  F  F30  1  0.83340329  0.76802367  0.32141188  1
  F  F31  1  0.62387991  0.16295600  0.31762090  1
  F  F32  1  0.24767074  0.16623646  0.47656387  1
  F  F33  1  0.23449162  0.25909764  0.80804694  1
  O  O34  1  0.53093809  0.50325018  0.84110880  1
  O  O35  1  0.53992993  0.00963012  0.33888239  1
  Ti  Ti36  1  0.54820210  0.00107183  0.84986669  1
  O  O37  1  0.03701989  0.00117624  0.84349829  1
  F  F38  1  0.74027848  0.40021154  0.75642180  1
  O  O39  1  0.22231582  0.91354179  0.36015382  1
  Nb  Nb40  1  0.94526476  0.19295354  0.48823565  1
  O  O41  1  0.66242695  0.47411054  0.36025023  1
  F  F42  1  0.44205204  0.19355239  0.04688790  1
  O  O43  1  0.18368585  0.43333235  0.55426329  1
  O  O44  1  0.70655620  0.95427412  0.55194223  1
  O  O45  1  0.43838018  0.69691944  0.94956094  1
  F  F46  1  0.94171071  0.68985045  0.04849733  1
  Ti  Ti47  1  0.68582141  0.45144621  0.06966990  1
  O  O48  1  0.94697148  0.19437198  0.15390380  1
  Sc  Sc49  1  0.44200924  0.69412500  0.58778423  1
  F  F50  1  0.13763076  0.99133158  0.74767554  1
  Ti  Ti51  1  0.19798020  0.93970394  0.07076946  1
  Pr  Pr52  1  0.95279235  0.63211632  0.66642988  1
  Cl  Cl53  1  0.10486033  0.12166934  0.95842004  1
  Ho  Ho54  1  0.25003487  0.60195988  0.26502901  1
  O  O55  1  0.78664905  0.47499517  0.32727402  1
  O  O56  1  0.91660094  0.25777316  0.59460270  1
  O  O57  1  0.41355190  0.77071726  0.59395397  1
  O  O58  1  0.28057730  0.96482706  0.33583334  1
  Yb  Yb59  1  0.74834991  0.09645800  0.26365075  1
  Ho  Ho60  1  0.45368665  0.12805796  0.65828913  1
  Cl  Cl61  1  0.59511596  0.60198444  0.96562630  1
