# generated using pymatgen
data_Dy4TaTl3P4Pd4Se4O
_symmetry_space_group_name_H-M   'P 1'
_cell_length_a   3.83604670
_cell_length_b   7.08896494
_cell_length_c   8.37177277
_cell_angle_alpha   90.68195343
_cell_angle_beta   90.33834839
_cell_angle_gamma   89.67098999
_symmetry_Int_Tables_number   1
_chemical_formula_structural   Dy4TaTl3P4Pd4Se4O
_chemical_formula_sum   'Dy4 Ta1 Tl3 P4 Pd4 Se4 O1'
_cell_volume   227.63488720
_cell_formula_units_Z   1
loop_
 _symmetry_equiv_pos_site_id
 _symmetry_equiv_pos_as_xyz
  1  'x, y, z'
loop_
 _atom_site_type_symbol
 _atom_site_label
 _atom_site_symmetry_multiplicity
 _atom_site_fract_x
 _atom_site_fract_y
 _atom_site_fract_z
 _atom_site_occupancy
  P  P0  1  0.62191904  0.53765810  0.95664346  1
  Dy  Dy1  1  0.62005669  0.28386390  0.30493453  1
  P  P2  1  0.62689441  0.04429098  0.63300872  1
  Pd  Pd3  1  0.61378741  0.55495811  0.62481707  1
  Pd  Pd4  1  0.12338534  0.02078331  0.46591073  1
  Pd  Pd5  1  0.61663908  0.04082489  0.96269929  1
  P  P6  1  0.11930895  0.53560710  0.45872521  1
  Dy  Dy7  1  0.11890714  0.79316193  0.80063975  1
  Dy  Dy8  1  0.62153310  0.78560096  0.29168561  1
  Pd  Pd9  1  0.12038188  0.52964848  0.12618136  1
  P  P10  1  0.12426309  0.03692050  0.13665174  1
  Dy  Dy11  1  0.12256993  0.29142106  0.78560048  1
  Se  Se12  1  0.37870404  0.81142044  0.47223917  1
  Tl  Tl13  1  0.87767512  0.19600300  0.72140539  1
  Se  Se14  1  0.37261954  0.56701750  0.95929766  1
  Tl  Tl15  1  0.87261832  0.93010646  0.20251460  1
  Ta  Ta16  1  0.37678459  0.68896502  0.72096491  1
  Se  Se17  1  0.37053478  0.06065182  0.96212977  1
  Se  Se18  1  0.36998865  0.32785767  0.47853041  1
  Tl  Tl19  1  0.87055969  0.44842955  0.23341508  1
  O  O20  1  0.86615711  0.68947369  0.71266925  1
