# generated using pymatgen
data_YbCeEu2P4Pt3Au2
_symmetry_space_group_name_H-M   'P 1'
_cell_length_a   5.65204525
_cell_length_b   5.71708298
_cell_length_c   5.52382851
_cell_angle_alpha   115.73481750
_cell_angle_beta   93.89945221
_cell_angle_gamma   92.42956543
_symmetry_Int_Tables_number   1
_chemical_formula_structural   YbCeEu2P4Pt3Au2
_chemical_formula_sum   'Yb1 Ce1 Eu2 P4 Pt3 Au2'
_cell_volume   159.90184765
_cell_formula_units_Z   1
loop_
 _symmetry_equiv_pos_site_id
 _symmetry_equiv_pos_as_xyz
  1  'x, y, z'
loop_
 _atom_site_type_symbol
 _atom_site_label
 _atom_site_symmetry_multiplicity
 _atom_site_fract_x
 _atom_site_fract_y
 _atom_site_fract_z
 _atom_site_occupancy
  Pt  Pt0  1  0.24107489  0.74092746  0.81090522  1
  P  P1  1  0.99297434  0.85170949  0.54227614  1
  P  P2  1  0.99576521  0.61557823  0.06829971  1
  Eu  Eu3  1  0.49559492  0.73395634  0.30489811  1
  P  P4  1  0.49547169  0.34951812  0.54049313  1
  Eu  Eu5  1  0.99930847  0.23811397  0.31066340  1
  P  P6  1  0.48768148  0.11848199  0.06661168  1
  Pt  Pt7  1  0.74385828  0.23699309  0.80976617  1
  Au  Au8  1  0.41581216  0.23829967  0.91792041  1
  Ce  Ce9  1  0.92487514  0.74192268  0.71745157  1
  Yb  Yb10  1  0.42429546  0.74597174  0.23283021  1
  Au  Au11  1  0.92278290  0.24783753  0.23436335  1
  Pt  Pt12  1  0.42118537  0.25059843  0.53427464  1
