# generated using pymatgen
data_Na2LiAc2CrInGa3Hg2
_symmetry_space_group_name_H-M   'P 1'
_cell_length_a   3.98833776
_cell_length_b   4.93031502
_cell_length_c   6.41770458
_cell_angle_alpha   105.09780884
_cell_angle_beta   99.94529724
_cell_angle_gamma   111.59577179
_symmetry_Int_Tables_number   1
_chemical_formula_structural   Na2LiAc2CrInGa3Hg2
_chemical_formula_sum   'Na2 Li1 Ac2 Cr1 In1 Ga3 Hg2'
_cell_volume   108.09864828
_cell_formula_units_Z   1
loop_
 _symmetry_equiv_pos_site_id
 _symmetry_equiv_pos_as_xyz
  1  'x, y, z'
loop_
 _atom_site_type_symbol
 _atom_site_label
 _atom_site_symmetry_multiplicity
 _atom_site_fract_x
 _atom_site_fract_y
 _atom_site_fract_z
 _atom_site_occupancy
  Ga  Ga0  1  0.10103536  0.92446017  0.84455454  1
  In  In1  1  0.94261003  0.43361670  0.02795118  1
  Ga  Ga2  1  0.43471310  0.92710471  0.52174234  1
  Cr  Cr3  1  0.60254639  0.42123878  0.35920385  1
  Ga  Ga4  1  0.80672038  0.95593047  0.22319672  1
  Li  Li5  1  0.27006966  0.42874336  0.68285358  1
  Ac  Ac6  1  0.61725026  0.12088688  0.38817912  1
  Ac  Ac7  1  0.61967975  0.79532081  0.88636220  1
  Hg  Hg8  1  0.86438596  0.55311447  0.31564882  1
  Na  Na9  1  0.96807736  0.24280378  0.77458811  1
  Hg  Hg10  1  0.36887950  0.36888784  0.96235067  1
  Na  Na11  1  0.26542485  0.68205976  0.49881843  1
