# generated using pymatgen
data_K2Sr2NbAlZnInCoAs2PPbO19
_symmetry_space_group_name_H-M   'P 1'
_cell_length_a   4.78100061
_cell_length_b   5.49293327
_cell_length_c   9.05723858
_cell_angle_alpha   99.59000397
_cell_angle_beta   94.05076599
_cell_angle_gamma   100.21047211
_symmetry_Int_Tables_number   1
_chemical_formula_structural   K2Sr2NbAlZnInCoAs2PPbO19
_chemical_formula_sum   'K2 Sr2 Nb1 Al1 Zn1 In1 Co1 As2 P1 Pb1 O19'
_cell_volume   229.58724973
_cell_formula_units_Z   1
loop_
 _symmetry_equiv_pos_site_id
 _symmetry_equiv_pos_as_xyz
  1  'x, y, z'
loop_
 _atom_site_type_symbol
 _atom_site_label
 _atom_site_symmetry_multiplicity
 _atom_site_fract_x
 _atom_site_fract_y
 _atom_site_fract_z
 _atom_site_occupancy
  Pb  Pb0  1  0.94694334  0.29868835  0.61055666  1
  O  O1  1  0.69777560  0.51377201  0.37368006  1
  In  In2  1  0.95087582  0.88385111  0.00991996  1
  Al  Al3  1  0.42256337  0.68850756  0.43797785  1
  O  O4  1  0.33846587  0.15526584  0.77949852  1
  O  O5  1  0.28230724  0.74390453  0.89581251  1
  O  O6  1  0.73514652  0.08516631  0.17401747  1
  O  O7  1  0.73435116  0.90225744  0.79863191  1
  O  O8  1  0.28647825  0.72142470  0.61841047  1
  O  O9  1  0.23917218  0.23594570  0.11370997  1
  Co  Co10  1  0.44149724  0.12902169  0.29236975  1
  Zn  Zn11  1  0.41125706  0.40827551  0.95854467  1
  O  O12  1  0.80257797  0.52168524  0.04086546  1
  Nb  Nb13  1  0.94595826  0.43600643  0.22745436  1
  O  O14  1  0.22271475  0.75406212  0.27227268  1
  O  O15  1  0.19726284  0.33956981  0.40151829  1
  P  P16  1  0.41725269  0.88455117  0.77322942  1
  O  O17  1  0.59988791  0.02653014  0.45914894  1
  O  O18  1  0.88419092  0.27460042  0.12309959  1
  As  As19  1  0.59571189  0.54264677  0.51360542  1
  Sr  Sr20  1  0.60655683  0.03502862  0.29322967  1
  Sr  Sr21  1  0.05844604  0.54978949  0.36661905  1
  O  O22  1  0.38368043  0.54745060  0.63735336  1
  K  K23  1  0.50699097  0.53814512  0.97908145  1
  As  As24  1  0.06132391  0.04209138  0.14232206  1
  K  K25  1  0.14721774  0.04804007  0.68458837  1
  O  O26  1  0.28058943  0.03586834  0.02557124  1
  O  O27  1  0.77932078  0.30181053  0.53569609  1
  O  O28  1  0.87129688  0.80672967  0.12805596  1
  O  O29  1  0.46550623  0.54240710  0.29977623  1
  O  O30  1  0.19443844  0.03490651  0.35332158  1
  O  O31  1  0.78256929  0.77492088  0.53507662  1
