# generated using pymatgen
data_Rb2Na2Sr4NdFeAs2Cl2O13F2
_symmetry_space_group_name_H-M   'P 1'
_cell_length_a   4.78518581
_cell_length_b   5.19626331
_cell_length_c   5.86550331
_cell_angle_alpha   91.80067444
_cell_angle_beta   77.31269836
_cell_angle_gamma   84.13237000
_symmetry_Int_Tables_number   1
_chemical_formula_structural   Rb2Na2Sr4NdFeAs2Cl2O13F2
_chemical_formula_sum   'Rb2 Na2 Sr4 Nd1 Fe1 As2 Cl2 O13 F2'
_cell_volume   141.32140695
_cell_formula_units_Z   1
loop_
 _symmetry_equiv_pos_site_id
 _symmetry_equiv_pos_as_xyz
  1  'x, y, z'
loop_
 _atom_site_type_symbol
 _atom_site_label
 _atom_site_symmetry_multiplicity
 _atom_site_fract_x
 _atom_site_fract_y
 _atom_site_fract_z
 _atom_site_occupancy
  O  O0  1  0.72656769  0.33959976  0.92470706  1
  Fe  Fe1  1  0.90022153  0.12412465  0.12833628  1
  Na  Na2  1  0.38436159  0.13769796  0.62261629  1
  Na  Na3  1  0.38837424  0.60035658  0.14989829  1
  O  O4  1  0.71679491  0.91471994  0.35807440  1
  Nd  Nd5  1  0.88162655  0.61887038  0.63383180  1
  O  O6  1  0.05788614  0.32972944  0.32462978  1
  O  O7  1  0.08821046  0.90290022  0.91975945  1
  O  O8  1  0.38520259  0.56326127  0.58069611  1
  As  As9  1  0.98527759  0.71290070  0.54458737  1
  Sr  Sr10  1  0.60306841  0.41877657  0.44169351  1
  O  O11  1  0.00308979  0.88634062  0.44302779  1
  O  O12  1  0.43713051  0.29234114  0.14976823  1
  O  O13  1  0.64072025  0.54005837  0.12720641  1
  O  O14  1  0.88667798  0.77218783  0.77667177  1
  Cl  Cl15  1  0.00229274  0.07710847  0.02199484  1
  As  As16  1  0.45540613  0.46259603  0.04535066  1
  O  O17  1  0.20620807  0.59847867  0.06837286  1
  Sr  Sr18  1  0.21943586  0.08732042  0.29514429  1
  O  O19  1  0.23417613  0.58494341  0.51866883  1
  O  O20  1  0.55236810  0.40510806  0.81192887  1
  Sr  Sr21  1  0.83951133  0.75796854  0.14366782  1
  Rb  Rb22  1  0.04916742  0.39926949  0.80336595  1
  Cl  Cl23  1  0.43822414  0.10491110  0.56526703  1
  F  F24  1  0.91538775  0.24642837  0.52296209  1
  Sr  Sr25  1  0.72030294  0.08992213  0.79655337  1
  Rb  Rb26  1  0.39367506  0.78094637  0.78568852  1
  F  F27  1  0.52564067  0.92966157  0.06643138  1
  O  O28  1  0.79120916  0.63864553  0.46858466  1
