# generated using pymatgen
data_Li2La2Pr2YZn3InNiBiO17
_symmetry_space_group_name_H-M   'P 1'
_cell_length_a   5.74322796
_cell_length_b   5.86886215
_cell_length_c   6.55374002
_cell_angle_alpha   70.51894379
_cell_angle_beta   70.64275360
_cell_angle_gamma   76.81710815
_symmetry_Int_Tables_number   1
_chemical_formula_structural   Li2La2Pr2YZn3InNiBiO17
_chemical_formula_sum   'Li2 La2 Pr2 Y1 Zn3 In1 Ni1 Bi1 O17'
_cell_volume   194.76031336
_cell_formula_units_Z   1
loop_
 _symmetry_equiv_pos_site_id
 _symmetry_equiv_pos_as_xyz
  1  'x, y, z'
loop_
 _atom_site_type_symbol
 _atom_site_label
 _atom_site_symmetry_multiplicity
 _atom_site_fract_x
 _atom_site_fract_y
 _atom_site_fract_z
 _atom_site_occupancy
  O  O0  1  0.68115187  0.19054356  0.58073497  1
  Ni  Ni1  1  0.01202586  0.55371249  0.93616247  1
  Y  Y2  1  0.68691927  0.00903070  0.97819310  1
  O  O3  1  0.36386427  0.39039156  0.94270277  1
  O  O4  1  0.89941156  0.22333105  0.05685866  1
  O  O5  1  0.18136093  0.47842985  0.53245330  1
  O  O6  1  0.34921026  0.85659587  0.03677565  1
  O  O7  1  0.75993478  0.68375486  0.72713220  1
  Pr  Pr8  1  0.50888824  0.42014423  0.24397445  1
  Zn  Zn9  1  0.42978281  0.76862842  0.72149265  1
  O  O10  1  0.44612297  0.99115890  0.36661321  1
  Pr  Pr11  1  0.04330334  0.93075198  0.38881400  1
  O  O12  1  0.82393122  0.65530807  0.21393770  1
  Zn  Zn13  1  0.23223028  0.18009090  0.80551976  1
  Zn  Zn14  1  0.84818536  0.45218852  0.53471875  1
  O  O15  1  0.08978992  0.90286839  0.76238525  1
  Bi  Bi16  1  0.85259354  0.55313891  0.53246528  1
  O  O17  1  0.00841619  0.30324516  0.29661432  1
  La  La18  1  0.81214660  0.99206614  0.94888300  1
  O  O19  1  0.07934903  0.76562119  0.25968713  1
  O  O20  1  0.64370894  0.76552182  0.77070832  1
  Li  Li21  1  0.65391439  0.33805662  0.34626669  1
  In  In22  1  0.26860499  0.96572727  0.35412347  1
  O  O23  1  0.17457139  0.86972344  0.71776164  1
  Li  Li24  1  0.37297413  0.07733288  0.72222716  1
  La  La25  1  0.30031249  0.50243062  0.95946789  1
  O  O26  1  0.60858208  0.30247369  0.69122291  1
  O  O27  1  0.61452419  0.69287032  0.29883701  1
  O  O28  1  0.06833412  0.34370205  0.77212298  1
  O  O29  1  0.51125407  0.20501322  0.19879569  1
