# generated using pymatgen
data_RbNa3NbNi3TePdO9F8
_symmetry_space_group_name_H-M   'P 1'
_cell_length_a   4.53947020
_cell_length_b   4.86324835
_cell_length_c   10.69864368
_cell_angle_alpha   96.84941864
_cell_angle_beta   90.72435760
_cell_angle_gamma   111.93194580
_symmetry_Int_Tables_number   1
_chemical_formula_structural   RbNa3NbNi3TePdO9F8
_chemical_formula_sum   'Rb1 Na3 Nb1 Ni3 Te1 Pd1 O9 F8'
_cell_volume   217.11248715
_cell_formula_units_Z   1
loop_
 _symmetry_equiv_pos_site_id
 _symmetry_equiv_pos_as_xyz
  1  'x, y, z'
loop_
 _atom_site_type_symbol
 _atom_site_label
 _atom_site_symmetry_multiplicity
 _atom_site_fract_x
 _atom_site_fract_y
 _atom_site_fract_z
 _atom_site_occupancy
  O  O0  1  0.78814548  0.61802274  0.03225372  1
  O  O1  1  0.43924683  0.89016879  0.50968671  1
  O  O2  1  0.46914434  0.00522407  0.88998216  1
  Ni  Ni3  1  0.31174862  0.62130588  0.31512290  1
  O  O4  1  0.90422976  0.94128531  0.70939881  1
  Nb  Nb5  1  0.95982099  0.93878895  0.19954272  1
  Te  Te6  1  0.48279291  0.92612946  0.70258254  1
  Ni  Ni7  1  0.62604207  0.26824570  0.09386717  1
  O  O8  1  0.80624735  0.61425912  0.28541994  1
  O  O9  1  0.11555059  0.25099701  0.36304706  1
  O  O10  1  0.46072441  0.93970966  0.19740036  1
  Na  Na11  1  0.72836924  0.40762016  0.49712113  1
  O  O12  1  0.26338625  0.51705521  0.67665851  1
  Na  Na13  1  0.20797017  0.47954279  0.91390347  1
  O  O14  1  0.12165852  0.25561503  0.11295059  1
  Ni  Ni15  1  0.45855299  0.25895911  0.59359729  1
  F  F16  1  0.21442232  0.47217092  0.47602665  1
  F  F17  1  0.58387178  0.51442909  0.69480157  1
  F  F18  1  0.23091479  0.15721759  0.88371944  1
  F  F19  1  0.33607179  0.00531737  0.48937690  1
  Na  Na20  1  0.96145046  0.75797391  0.58905971  1
  F  F21  1  0.71110159  0.04594590  0.70169020  1
  Rb  Rb22  1  0.46113962  0.75641000  0.09260082  1
  Pd  Pd23  1  0.96054268  0.25641319  0.09352030  1
  F  F24  1  0.90085083  0.94089651  0.23264658  1
  F  F25  1  0.68795323  0.35015598  0.30355871  1
  F  F26  1  0.02421407  0.58087355  0.95570946  1
