# generated using pymatgen
data_Dy2Y5Th2MgAlTlInGaAgBi3Pd5Ru2PbW2
_symmetry_space_group_name_H-M   'P 1'
_cell_length_a   5.93430328
_cell_length_b   7.87045670
_cell_length_c   9.32945251
_cell_angle_alpha   93.59458923
_cell_angle_beta   95.39607239
_cell_angle_gamma   89.70339203
_symmetry_Int_Tables_number   1
_chemical_formula_structural   Dy2Y5Th2MgAlTlInGaAgBi3Pd5Ru2PbW2
_chemical_formula_sum
'Dy2 Y5 Th2 Mg1 Al1 Tl1 In1 Ga1 Ag1 Bi3 Ru2 Pd5 Pb1 W2'
_cell_volume   432.95382061
_cell_formula_units_Z   1
loop_
 _symmetry_equiv_pos_site_id
 _symmetry_equiv_pos_as_xyz
  1  'x, y, z'
loop_
 _atom_site_type_symbol
 _atom_site_label
 _atom_site_symmetry_multiplicity
 _atom_site_fract_x
 _atom_site_fract_y
 _atom_site_fract_z
 _atom_site_occupancy
  Th  Th0  1  0.13119623  0.11312980  0.34696877  1
  Bi  Bi1  1  0.41558132  0.74288666  0.16641222  1
  Dy  Dy2  1  0.63639843  0.35723835  0.33503467  1
  Dy  Dy3  1  0.20465441  0.12294365  0.99485898  1
  Y  Y4  1  0.65485507  0.91764361  0.47037774  1
  Ru  Ru5  1  0.15801966  0.43054256  0.16584535  1
  W  W6  1  0.91547567  0.24112141  0.66600585  1
  Bi  Bi7  1  0.66539866  0.55924374  0.66105437  1
  Th  Th8  1  0.70013165  0.36530441  0.98524928  1
  Y  Y9  1  0.15441643  0.56216013  0.46589297  1
  Y  Y10  1  0.17930639  0.56338859  0.86105984  1
  W  W11  1  0.41499177  0.24092157  0.66567969  1
  Mg  Mg12  1  0.91523612  0.73763949  0.16548654  1
  Y  Y13  1  0.67979449  0.91617715  0.86551303  1
  Bi  Bi14  1  0.16602482  0.91936922  0.66692114  1
  Ru  Ru15  1  0.68196708  0.05118836  0.16512206  1
  Pd  Pd16  1  0.35428160  0.79487169  0.14050400  1
  Pd  Pd17  1  0.18404630  0.46290591  0.65039927  1
  Ag  Ag18  1  0.68403995  0.46282804  0.65297985  1
  Al  Al19  1  0.01748168  0.62799096  0.89942390  1
  Pd  Pd20  1  0.85742140  0.80366147  0.14164074  1
  Tl  Tl21  1  0.34931239  0.29287845  0.33029106  1
  Pd  Pd22  1  0.84894443  0.29186234  0.14206827  1
  Pd  Pd23  1  0.18389052  0.96779346  0.65153885  1
  In  In24  1  0.68958580  0.96572596  0.83768392  1
  Pb  Pb25  1  0.69643462  0.97021824  0.46213803  1
  Y  Y26  1  0.34446996  0.29407912  0.96015954  1
  Ga  Ga27  1  0.02441531  0.63438886  0.39316669  1
