# generated using pymatgen
data_NaSrTm4UCo4WO18
_symmetry_space_group_name_H-M   'P 1'
_cell_length_a   5.78488207
_cell_length_b   5.67821264
_cell_length_c   5.90373325
_cell_angle_alpha   61.16047668
_cell_angle_beta   62.76910400
_cell_angle_gamma   61.08327103
_symmetry_Int_Tables_number   1
_chemical_formula_structural   NaSrTm4UCo4WO18
_chemical_formula_sum   'Na1 Sr1 Tm4 U1 Co4 W1 O18'
_cell_volume   142.18705433
_cell_formula_units_Z   1
loop_
 _symmetry_equiv_pos_site_id
 _symmetry_equiv_pos_as_xyz
  1  'x, y, z'
loop_
 _atom_site_type_symbol
 _atom_site_label
 _atom_site_symmetry_multiplicity
 _atom_site_fract_x
 _atom_site_fract_y
 _atom_site_fract_z
 _atom_site_occupancy
  O  O0  1  0.36038518  0.66016573  0.16625232  1
  Na  Na1  1  0.87190348  0.64911342  0.67358959  1
  O  O2  1  0.88882607  0.65873408  0.15959728  1
  Sr  Sr3  1  0.37295926  0.14802735  0.17078809  1
  O  O4  1  0.88199228  0.13974339  0.16273659  1
  W  W5  1  0.12382625  0.89820659  0.92047155  1
  O  O6  1  0.36288536  0.66169846  0.68452489  1
  O  O7  1  0.36320966  0.13436146  0.68792498  1
  O  O8  1  0.88675863  0.13659340  0.68233204  1
  U  U9  1  0.62088537  0.40188572  0.42467070  1
  O  O10  1  0.62777436  0.82974958  0.40962854  1
  O  O11  1  0.13535738  0.98908013  0.90684110  1
  O  O12  1  0.13687198  0.98899281  0.51880842  1
  O  O13  1  0.23569182  0.48279342  0.91119802  1
  Tm  Tm14  1  0.45401677  0.56509900  0.21569330  1
  Tm  Tm15  1  0.95321071  0.24677162  0.71435815  1
  O  O16  1  0.31138131  0.19196235  0.21938008  1
  O  O17  1  0.73438770  0.33154351  0.41259331  1
  Co  Co18  1  0.43481332  0.16036583  0.46642861  1
  Co  Co19  1  0.92635715  0.65490031  0.96645969  1
  Co  Co20  1  0.42812222  0.15491827  0.96738249  1
  O  O21  1  0.62965870  0.82697755  0.01916878  1
  O  O22  1  0.73218352  0.32568654  0.02581213  1
  O  O23  1  0.04651483  0.69748527  0.21484172  1
  O  O24  1  0.80751610  0.61909342  0.71854126  1
  Co  Co25  1  0.93040454  0.65670109  0.46964031  1
  O  O26  1  0.56125498  0.11056154  0.71055871  1
  O  O27  1  0.23666674  0.48156628  0.52857012  1
  Tm  Tm28  1  0.90045708  0.06499600  0.21703236  1
  Tm  Tm29  1  0.40656227  0.75111532  0.72197914  1
