# generated using pymatgen
data_Mg2ZrAl(NiTe)2
_symmetry_space_group_name_H-M   'P 1'
_cell_length_a   4.64649010
_cell_length_b   4.56722832
_cell_length_c   6.86011696
_cell_angle_alpha   87.99697113
_cell_angle_beta   86.41672516
_cell_angle_gamma   91.67900848
_symmetry_Int_Tables_number   1
_chemical_formula_structural   Mg2ZrAl(NiTe)2
_chemical_formula_sum   'Mg2 Zr1 Al1 Ni2 Te2'
_cell_volume   145.13677748
_cell_formula_units_Z   1
loop_
 _symmetry_equiv_pos_site_id
 _symmetry_equiv_pos_as_xyz
  1  'x, y, z'
loop_
 _atom_site_type_symbol
 _atom_site_label
 _atom_site_symmetry_multiplicity
 _atom_site_fract_x
 _atom_site_fract_y
 _atom_site_fract_z
 _atom_site_occupancy
  Mg  Mg0  1  0.14921039  0.14269766  0.40966493  1
  Te  Te1  1  0.14544354  0.14044701  0.90573126  1
  Te  Te2  1  0.64501125  0.64369184  0.40302885  1
  Mg  Mg3  1  0.64799279  0.64268720  0.90627158  1
  Ni  Ni4  1  0.96214378  0.44421062  0.89839429  1
  Al  Al5  1  0.46615341  0.44042981  0.39509949  1
  Ni  Ni6  1  0.96175480  0.93884760  0.39002442  1
  Zr  Zr7  1  0.46583733  0.93693173  0.89647579  1
