# generated using pymatgen
data_La2MnAl2SnPd2O11
_symmetry_space_group_name_H-M   'P 1'
_cell_length_a   5.02311945
_cell_length_b   5.04651403
_cell_length_c   5.24929905
_cell_angle_alpha   81.91701508
_cell_angle_beta   81.11698151
_cell_angle_gamma   81.95880890
_symmetry_Int_Tables_number   1
_chemical_formula_structural   La2MnAl2SnPd2O11
_chemical_formula_sum   'La2 Mn1 Al2 Sn1 Pd2 O11'
_cell_volume   129.21030557
_cell_formula_units_Z   1
loop_
 _symmetry_equiv_pos_site_id
 _symmetry_equiv_pos_as_xyz
  1  'x, y, z'
loop_
 _atom_site_type_symbol
 _atom_site_label
 _atom_site_symmetry_multiplicity
 _atom_site_fract_x
 _atom_site_fract_y
 _atom_site_fract_z
 _atom_site_occupancy
  Al  Al0  1  0.21218240  0.34127504  0.60909873  1
  O  O1  1  0.79200035  0.92767340  0.24623308  1
  O  O2  1  0.43010426  0.53781122  0.34137946  1
  Al  Al3  1  0.54100746  0.76340723  0.54119778  1
  O  O4  1  0.82908863  0.45673153  0.70544809  1
  Sn  Sn5  1  0.57307017  0.26963931  0.03802966  1
  Mn  Mn6  1  0.17426337  0.84427530  0.11738652  1
  O  O7  1  0.44324020  0.04388831  0.79116237  1
  O  O8  1  0.28288734  0.56952167  0.83530104  1
  O  O9  1  0.27714068  0.07671645  0.36800200  1
  O  O10  1  0.67300433  0.25102398  0.97889757  1
  O  O11  1  0.17368120  0.93347663  0.65664786  1
  La  La12  1  0.16831432  0.48461542  0.74004835  1
  Pd  Pd13  1  0.67672074  0.98818278  0.72192931  1
  Pd  Pd14  1  0.68295699  0.51095325  0.23789266  1
  O  O15  1  0.17886089  0.56805611  0.30248377  1
  O  O16  1  0.67521203  0.24781364  0.47378659  1
  O  O17  1  0.68009603  0.75319397  0.98446906  1
  La  La18  1  0.18178728  0.01519290  0.22762556  1
