# generated using pymatgen
data_LaY3ScTiCu2S3O8
_symmetry_space_group_name_H-M   'P 1'
_cell_length_a   4.50068474
_cell_length_b   4.45328951
_cell_length_c   4.71941519
_cell_angle_alpha   89.73702240
_cell_angle_beta   91.86145020
_cell_angle_gamma   98.37354279
_symmetry_Int_Tables_number   1
_chemical_formula_structural   LaY3ScTiCu2S3O8
_chemical_formula_sum   'La1 Y3 Sc1 Ti1 Cu2 S3 O8'
_cell_volume   93.53279112
_cell_formula_units_Z   1
loop_
 _symmetry_equiv_pos_site_id
 _symmetry_equiv_pos_as_xyz
  1  'x, y, z'
loop_
 _atom_site_type_symbol
 _atom_site_label
 _atom_site_symmetry_multiplicity
 _atom_site_fract_x
 _atom_site_fract_y
 _atom_site_fract_z
 _atom_site_occupancy
  S  S0  1  0.75350606  0.69622010  0.11101548  1
  La  La1  1  0.26011741  0.20311083  0.11133549  1
  Sc  Sc2  1  0.75477308  0.69763011  0.61110908  1
  S  S3  1  0.25284421  0.70374966  0.61207891  1
  S  S4  1  0.75618970  0.19779401  0.61017215  1
  O  O5  1  0.79016352  0.69613248  0.55861562  1
  O  O6  1  0.76313412  0.39592138  0.33094823  1
  O  O7  1  0.26377562  0.15733470  0.52544075  1
  Cu  Cu8  1  0.26886517  0.48912412  0.98667514  1
  O  O9  1  0.31096545  0.76701415  0.98102480  1
  O  O10  1  0.77583128  0.03850109  0.77900332  1
  Ti  Ti11  1  0.26598239  0.20423040  0.31327298  1
  Cu  Cu12  1  0.76347291  0.69964272  0.34644100  1
  Y  Y13  1  0.77416474  0.98843610  0.02295133  1
  O  O14  1  0.24911498  0.46979991  0.77001965  1
  Y  Y15  1  0.75000387  0.34288967  0.63787144  1
  O  O16  1  0.77522987  0.99921024  0.28490600  1
  Y  Y17  1  0.27520230  0.83895290  0.69343251  1
  O  O18  1  0.25302696  0.21546394  0.08730794  1
