# generated using pymatgen
data_Li2LaUNbV5O16
_symmetry_space_group_name_H-M   'P 1'
_cell_length_a   4.62292242
_cell_length_b   4.71340609
_cell_length_c   5.51816940
_cell_angle_alpha   62.69070435
_cell_angle_beta   64.91741180
_cell_angle_gamma   60.84163666
_symmetry_Int_Tables_number   1
_chemical_formula_structural   Li2LaUNbV5O16
_chemical_formula_sum   'Li2 La1 U1 Nb1 V5 O16'
_cell_volume   90.13400266
_cell_formula_units_Z   1
loop_
 _symmetry_equiv_pos_site_id
 _symmetry_equiv_pos_as_xyz
  1  'x, y, z'
loop_
 _atom_site_type_symbol
 _atom_site_label
 _atom_site_symmetry_multiplicity
 _atom_site_fract_x
 _atom_site_fract_y
 _atom_site_fract_z
 _atom_site_occupancy
  Nb  Nb0  1  0.21866910  0.99781275  0.21424890  1
  La  La1  1  0.70684057  0.51182765  0.70900184  1
  O  O2  1  0.73735523  0.06456238  0.19309732  1
  O  O3  1  0.19371018  0.74952835  0.59971368  1
  O  O4  1  0.46792480  0.02913196  0.82562757  1
  O  O5  1  0.14251307  0.47589925  0.24307880  1
  O  O6  1  0.05880558  0.08320875  0.53645605  1
  V  V7  1  0.15053825  0.71508551  0.97975212  1
  Li  Li8  1  0.26474258  0.83975297  0.38573334  1
  O  O9  1  0.02001619  0.82640541  0.17917177  1
  O  O10  1  0.06453434  0.51901978  0.49401560  1
  V  V11  1  0.18874292  0.28437677  0.73264009  1
  Li  Li12  1  0.79509968  0.04454189  0.19083506  1
  O  O13  1  0.80133122  0.21480605  0.89088076  1
  U  U14  1  0.70380974  0.00278987  0.68821424  1
  O  O15  1  0.33908135  0.95607203  0.83566022  1
  V  V16  1  0.64021963  0.41850704  0.01709668  1
  O  O17  1  0.87343413  0.71049935  0.85350788  1
  O  O18  1  0.49547833  0.60721588  0.18381180  1
  O  O19  1  0.62691772  0.81108773  0.48270747  1
  V  V20  1  0.76722205  0.58396637  0.36817876  1
  O  O21  1  0.54528588  0.31204763  0.53427792  1
  O  O22  1  0.92693841  0.40348503  0.17570597  1
  O  O23  1  0.34993476  0.49362659  0.89554030  1
  V  V24  1  0.25070772  0.33392733  0.33092490  1
  O  O25  1  0.43553817  0.15109546  0.19455895  1
