# generated using pymatgen
data_Na4ZnCu6Ag4GeS10
_symmetry_space_group_name_H-M   'P 1'
_cell_length_a   5.42112350
_cell_length_b   5.71035480
_cell_length_c   13.14651203
_cell_angle_alpha   90.39991760
_cell_angle_beta   89.98666382
_cell_angle_gamma   90.33251953
_symmetry_Int_Tables_number   1
_chemical_formula_structural   Na4ZnCu6Ag4GeS10
_chemical_formula_sum   'Na4 Zn1 Cu6 Ag4 Ge1 S10'
_cell_volume   406.95373337
_cell_formula_units_Z   1
loop_
 _symmetry_equiv_pos_site_id
 _symmetry_equiv_pos_as_xyz
  1  'x, y, z'
loop_
 _atom_site_type_symbol
 _atom_site_label
 _atom_site_symmetry_multiplicity
 _atom_site_fract_x
 _atom_site_fract_y
 _atom_site_fract_z
 _atom_site_occupancy
  Cu  Cu0  1  0.33132064  0.41166475  0.98660105  1
  S  S1  1  0.60161757  0.08691803  0.66427052  1
  S  S2  1  0.21768364  0.57184029  0.15705144  1
  S  S3  1  0.79647827  0.99533129  0.32842830  1
  S  S4  1  0.13723648  0.61116755  0.85616148  1
  S  S5  1  0.13840406  0.53946865  0.48756769  1
  Ag  Ag6  1  0.29958168  0.90928519  0.01080268  1
  Na  Na7  1  0.33715433  0.12017617  0.25682759  1
  Ag  Ag8  1  0.87728792  0.24204658  0.16991141  1
  Ag  Ag9  1  0.91484678  0.11323383  0.84019917  1
  Na  Na10  1  0.80096912  0.67484838  0.03963206  1
  S  S11  1  0.64718944  0.15775189  0.00254122  1
  Cu  Cu12  1  0.80804116  0.33939794  0.40997556  1
  Cu  Cu13  1  0.37891024  0.34520012  0.76225382  1
  Cu  Cu14  1  0.03226980  0.67106169  0.31457591  1
  Cu  Cu15  1  0.37297738  0.84704107  0.75928569  1
  Cu  Cu16  1  0.47420952  0.36051536  0.54627401  1
  Ag  Ag17  1  0.51288468  0.72493982  0.41317591  1
  Na  Na18  1  0.84846461  0.57848525  0.67889905  1
  Na  Na19  1  0.07250935  0.02051149  0.55134660  1
  Ge  Ge20  1  0.06770014  0.40652591  0.72687072  1
  S  S21  1  0.92584592  0.15628940  0.07031488  1
  S  S22  1  0.42791283  0.64699370  0.86889541  1
  Zn  Zn23  1  0.57516432  0.40204945  0.22339393  1
  S  S24  1  0.22111973  0.15797795  0.37128153  1
  S  S25  1  0.72969592  0.65125209  0.57732677  1
