# generated using pymatgen
data_Ce2Y2Th2Tl4Pb2C3
_symmetry_space_group_name_H-M   'P 1'
_cell_length_a   5.45199394
_cell_length_b   6.10321283
_cell_length_c   5.93096685
_cell_angle_alpha   93.15402222
_cell_angle_beta   79.96151733
_cell_angle_gamma   82.05453491
_symmetry_Int_Tables_number   1
_chemical_formula_structural   Ce2Y2Th2Tl4Pb2C3
_chemical_formula_sum   'Ce2 Y2 Th2 Tl4 Pb2 C3'
_cell_volume   191.82984704
_cell_formula_units_Z   1
loop_
 _symmetry_equiv_pos_site_id
 _symmetry_equiv_pos_as_xyz
  1  'x, y, z'
loop_
 _atom_site_type_symbol
 _atom_site_label
 _atom_site_symmetry_multiplicity
 _atom_site_fract_x
 _atom_site_fract_y
 _atom_site_fract_z
 _atom_site_occupancy
  Tl  Tl0  1  0.01175404  0.86150581  0.54939830  1
  Tl  Tl1  1  0.85559660  0.14121054  0.12649643  1
  Pb  Pb2  1  0.14578450  0.58108640  0.98171753  1
  Pb  Pb3  1  0.28728804  0.29905888  0.40514940  1
  Tl  Tl4  1  0.43960494  0.00549513  0.84057349  1
  Tl  Tl5  1  0.71946526  0.43411961  0.68211240  1
  C  C6  1  0.16824995  0.59510529  0.93260998  1
  Ce  Ce7  1  0.17269409  0.10248253  0.43664676  1
  Y  Y8  1  0.66901582  0.60043043  0.93652570  1
  Ce  Ce9  1  0.48630142  0.08416422  0.08691280  1
  Th  Th10  1  0.85247070  0.11611246  0.77938282  1
  Th  Th11  1  0.01532632  0.61736923  0.61287403  1
  C  C12  1  0.33198622  0.09270800  0.75406325  1
  Y  Y13  1  0.32215321  0.58701617  0.25629425  1
  C  C14  1  0.01052812  0.11734419  0.11670542  1
