# generated using pymatgen
data_Rb2Sr3CaCu3Bi2P3(ClO9)2
_symmetry_space_group_name_H-M   'P 1'
_cell_length_a   6.62396240
_cell_length_b   6.55499268
_cell_length_c   10.31008530
_cell_angle_alpha   75.12031555
_cell_angle_beta   71.73770142
_cell_angle_gamma   60.36322021
_symmetry_Int_Tables_number   1
_chemical_formula_structural   Rb2Sr3CaCu3Bi2P3(ClO9)2
_chemical_formula_sum   'Rb2 Sr3 Ca1 Cu3 Bi2 P3 Cl2 O18'
_cell_volume   366.67873763
_cell_formula_units_Z   1
loop_
 _symmetry_equiv_pos_site_id
 _symmetry_equiv_pos_as_xyz
  1  'x, y, z'
loop_
 _atom_site_type_symbol
 _atom_site_label
 _atom_site_symmetry_multiplicity
 _atom_site_fract_x
 _atom_site_fract_y
 _atom_site_fract_z
 _atom_site_occupancy
  O  O0  1  0.64265347  0.54311562  0.27117971  1
  Rb  Rb1  1  0.62655079  0.95147127  0.59287357  1
  Sr  Sr2  1  0.25176585  0.56443298  0.86177588  1
  O  O3  1  0.05687757  0.55107743  0.68054461  1
  O  O4  1  0.18838826  0.94644952  0.70190030  1
  Sr  Sr5  1  0.78899223  0.19186628  0.15034558  1
  Bi  Bi6  1  0.93509191  0.59433836  0.26261583  1
  Cl  Cl7  1  0.32989568  0.18858042  0.31597805  1
  Sr  Sr8  1  0.26594529  0.71789867  0.47000793  1
  Bi  Bi9  1  0.96843338  0.27684578  0.79181427  1
  O  O10  1  0.62762153  0.40933356  0.93555474  1
  O  O11  1  0.96978134  0.84527946  0.34072146  1
  O  O12  1  0.12892209  0.23629440  0.95539439  1
  Rb  Rb13  1  0.50251776  0.84085876  0.04010695  1
  O  O14  1  0.96296149  0.78359407  0.06634802  1
  Cl  Cl15  1  0.68890119  0.40176612  0.59743977  1
  P  P16  1  0.73425537  0.43890634  0.11126538  1
  O  O17  1  0.01028859  0.39893225  0.05318739  1
  P  P18  1  0.12986979  0.73810875  0.69436949  1
  O  O19  1  0.30799013  0.66392422  0.51619959  1
  O  O20  1  0.67633140  0.85398084  0.92748964  1
  O  O21  1  0.92788440  0.07673752  0.32605395  1
  O  O22  1  0.93401575  0.53800118  0.62950855  1
  Cu  Cu23  1  0.99313802  0.24852866  0.67271477  1
  P  P24  1  0.71216947  0.90632319  0.19091085  1
  O  O25  1  0.78506011  0.70418537  0.22926353  1
  Cu  Cu26  1  0.62521201  0.62450302  0.61120313  1
  Cu  Cu27  1  0.24737346  0.68238950  0.19950235  1
  O  O28  1  0.49262658  0.95319861  0.30138254  1
  Ca  Ca29  1  0.24584532  0.15081340  0.14041220  1
  O  O30  1  0.59707260  0.39439291  0.29476604  1
  O  O31  1  0.21650024  0.75573093  0.94026583  1
  O  O32  1  0.09239906  0.98410529  0.72822273  1
  O  O33  1  0.58918744  0.33712339  0.90377259  1
