# generated using pymatgen
data_Li5Tm(BeAl2)2
_symmetry_space_group_name_H-M   'P 1'
_cell_length_a   3.54977393
_cell_length_b   3.91254115
_cell_length_c   4.96844101
_cell_angle_alpha   101.92987061
_cell_angle_beta   105.82868958
_cell_angle_gamma   91.95150757
_symmetry_Int_Tables_number   1
_chemical_formula_structural   Li5Tm(BeAl2)2
_chemical_formula_sum   'Li5 Tm1 Be2 Al4'
_cell_volume   64.65392949
_cell_formula_units_Z   1
loop_
 _symmetry_equiv_pos_site_id
 _symmetry_equiv_pos_as_xyz
  1  'x, y, z'
loop_
 _atom_site_type_symbol
 _atom_site_label
 _atom_site_symmetry_multiplicity
 _atom_site_fract_x
 _atom_site_fract_y
 _atom_site_fract_z
 _atom_site_occupancy
  Be  Be0  1  0.46104848  0.17150117  0.49752605  1
  Tm  Tm1  1  0.86246783  0.65334284  0.27236119  1
  Be  Be2  1  0.56311750  0.68926710  0.70284450  1
  Li  Li3  1  0.15566233  0.18699040  0.86755002  1
  Li  Li4  1  0.75980926  0.23139970  0.40944940  1
  Al  Al5  1  0.00820176  0.72892553  0.53553134  1
  Li  Li6  1  0.00843467  0.73264354  0.03119831  1
  Li  Li7  1  0.25659245  0.22811384  0.65690529  1
  Li  Li8  1  0.51091069  0.72914284  0.28149098  1
  Al  Al9  1  0.51030457  0.73485804  0.77978081  1
  Al  Al10  1  0.75354934  0.22554860  0.91017729  1
  Al  Al11  1  0.24959627  0.22892547  0.15720347  1
