# generated using pymatgen
data_SrGa3NiHg
_symmetry_space_group_name_H-M   'P 1'
_cell_length_a   4.39311838
_cell_length_b   4.64749622
_cell_length_c   5.71792316
_cell_angle_alpha   105.05023956
_cell_angle_beta   102.90141296
_cell_angle_gamma   90.50577545
_symmetry_Int_Tables_number   1
_chemical_formula_structural   SrGa3NiHg
_chemical_formula_sum   'Sr1 Ga3 Ni1 Hg1'
_cell_volume   109.61530011
_cell_formula_units_Z   1
loop_
 _symmetry_equiv_pos_site_id
 _symmetry_equiv_pos_as_xyz
  1  'x, y, z'
loop_
 _atom_site_type_symbol
 _atom_site_label
 _atom_site_symmetry_multiplicity
 _atom_site_fract_x
 _atom_site_fract_y
 _atom_site_fract_z
 _atom_site_occupancy
  Ni  Ni0  1  0.09901851  0.22260612  0.98493409  1
  Ga  Ga1  1  0.33058637  0.44676024  0.44594198  1
  Ga  Ga2  1  0.99661827  0.62212270  0.78455144  1
  Sr  Sr3  1  0.75070351  0.87160617  0.28071126  1
  Ga  Ga4  1  0.49898157  0.12130012  0.78602529  1
  Hg  Hg5  1  0.69043320  0.07817325  0.80247289  1
