# generated using pymatgen
data_CsNaDy2HfThCd2CuPd3S7(ClO2)3
_symmetry_space_group_name_H-M   'P 1'
_cell_length_a   6.59581184
_cell_length_b   6.70456648
_cell_length_c   6.63752699
_cell_angle_alpha   117.58990479
_cell_angle_beta   100.83952332
_cell_angle_gamma   90.81646729
_symmetry_Int_Tables_number   1
_chemical_formula_structural   CsNaDy2HfThCd2CuPd3S7(ClO2)3
_chemical_formula_sum   'Cs1 Na1 Dy2 Hf1 Th1 Cd2 Cu1 Pd3 S7 Cl3 O6'
_cell_volume   253.76770357
_cell_formula_units_Z   1
loop_
 _symmetry_equiv_pos_site_id
 _symmetry_equiv_pos_as_xyz
  1  'x, y, z'
loop_
 _atom_site_type_symbol
 _atom_site_label
 _atom_site_symmetry_multiplicity
 _atom_site_fract_x
 _atom_site_fract_y
 _atom_site_fract_z
 _atom_site_occupancy
  Pd  Pd0  1  0.27631357  0.51264733  0.27392215  1
  Pd  Pd1  1  0.80790532  0.21290205  0.14777693  1
  Cu  Cu2  1  0.49376199  0.18912406  0.72558320  1
  O  O3  1  0.87782663  0.03157062  0.29498112  1
  O  O4  1  0.09238391  0.22351356  0.09010060  1
  Cl  Cl5  1  0.53633314  0.75560117  0.31251508  1
  O  O6  1  0.98107898  0.75770760  0.81453848  1
  Pd  Pd7  1  0.13576910  0.48450622  0.71945667  1
  O  O8  1  0.75374854  0.23996262  0.85300314  1
  O  O9  1  0.07906841  0.70698798  0.31131175  1
  Dy  Dy10  1  0.97620904  0.98560518  0.64895868  1
  Cl  Cl11  1  0.43228272  0.90412140  0.86604172  1
  Dy  Dy12  1  0.19288188  0.97165602  0.20507950  1
  Na  Na13  1  0.75736845  0.63867903  0.96062911  1
  O  O14  1  0.22436905  0.17899907  0.61698961  1
  Cl  Cl15  1  0.55349547  0.36171055  0.42854136  1
  Hf  Hf16  1  0.24177080  0.78500432  0.10111114  1
  S  S17  1  0.73729950  0.32813406  0.71152711  1
  Th  Th18  1  0.74672467  0.78829497  0.39061958  1
  S  S19  1  0.23518495  0.91364425  0.54075754  1
  S  S20  1  0.73744148  0.59733486  0.18621555  1
  Cd  Cd21  1  0.24160296  0.27857691  0.58913183  1
  Cd  Cd22  1  0.73427665  0.32424176  0.91482317  1
  Cs  Cs23  1  0.74345338  0.81566703  0.76443082  1
  S  S24  1  0.24418908  0.98005414  0.26981366  1
  S  S25  1  0.73511899  0.00304230  0.02085100  1
  S  S26  1  0.24024597  0.55144578  0.94950444  1
  S  S27  1  0.23072100  0.50705045  0.42005894  1
