# generated using pymatgen
data_YbPrAl2SiAgHg
_symmetry_space_group_name_H-M   'P 1'
_cell_length_a   5.08305788
_cell_length_b   5.75820303
_cell_length_c   5.59567261
_cell_angle_alpha   81.06325531
_cell_angle_beta   65.18766022
_cell_angle_gamma   63.64640808
_symmetry_Int_Tables_number   1
_chemical_formula_structural   YbPrAl2SiAgHg
_chemical_formula_sum   'Yb1 Pr1 Al2 Si1 Ag1 Hg1'
_cell_volume   133.11553232
_cell_formula_units_Z   1
loop_
 _symmetry_equiv_pos_site_id
 _symmetry_equiv_pos_as_xyz
  1  'x, y, z'
loop_
 _atom_site_type_symbol
 _atom_site_label
 _atom_site_symmetry_multiplicity
 _atom_site_fract_x
 _atom_site_fract_y
 _atom_site_fract_z
 _atom_site_occupancy
  Yb  Yb0  1  0.74405158  0.24290052  0.73629957  1
  Si  Si1  1  0.05425914  0.23505478  0.13875753  1
  Al  Al2  1  0.43748549  0.84212732  0.75368512  1
  Pr  Pr3  1  0.24895716  0.65443259  0.32476705  1
  Ag  Ag4  1  0.55423909  0.05893708  0.30719596  1
  Al  Al5  1  0.95324290  0.65787244  0.91545701  1
  Hg  Hg6  1  0.93914002  0.91275740  0.55859751  1
