# generated using pymatgen
data_Ca2ScBi2AuSe2
_symmetry_space_group_name_H-M   'P 1'
_cell_length_a   4.19571972
_cell_length_b   5.18140936
_cell_length_c   5.54574108
_cell_angle_alpha   96.11729431
_cell_angle_beta   77.90558624
_cell_angle_gamma   79.79859924
_symmetry_Int_Tables_number   1
_chemical_formula_structural   Ca2ScBi2AuSe2
_chemical_formula_sum   'Ca2 Sc1 Bi2 Au1 Se2'
_cell_volume   114.72298697
_cell_formula_units_Z   1
loop_
 _symmetry_equiv_pos_site_id
 _symmetry_equiv_pos_as_xyz
  1  'x, y, z'
loop_
 _atom_site_type_symbol
 _atom_site_label
 _atom_site_symmetry_multiplicity
 _atom_site_fract_x
 _atom_site_fract_y
 _atom_site_fract_z
 _atom_site_occupancy
  Bi  Bi0  1  0.79290676  0.26805070  0.14880234  1
  Bi  Bi1  1  0.79320526  0.77123147  0.65087944  1
  Ca  Ca2  1  0.28332257  0.27207983  0.64740062  1
  Ca  Ca3  1  0.28891402  0.77368987  0.15072386  1
  Se  Se4  1  0.84428149  0.41722453  0.91467690  1
  Sc  Sc5  1  0.34954202  0.92417663  0.91591996  1
  Au  Au6  1  0.84232235  0.41779041  0.40711561  1
  Se  Se7  1  0.33777601  0.92039335  0.40775847  1
