# generated using pymatgen
data_ErCr7PdRhWNO20
_symmetry_space_group_name_H-M   'P 1'
_cell_length_a   6.31952429
_cell_length_b   6.37335825
_cell_length_c   7.71783352
_cell_angle_alpha   85.96131134
_cell_angle_beta   71.75605011
_cell_angle_gamma   77.64308929
_symmetry_Int_Tables_number   1
_chemical_formula_structural   ErCr7PdRhWNO20
_chemical_formula_sum   'Er1 Cr7 Pd1 Rh1 W1 N1 O20'
_cell_volume   288.38113658
_cell_formula_units_Z   1
loop_
 _symmetry_equiv_pos_site_id
 _symmetry_equiv_pos_as_xyz
  1  'x, y, z'
loop_
 _atom_site_type_symbol
 _atom_site_label
 _atom_site_symmetry_multiplicity
 _atom_site_fract_x
 _atom_site_fract_y
 _atom_site_fract_z
 _atom_site_occupancy
  Cr  Cr0  1  0.63347393  0.77516079  0.84521079  1
  Cr  Cr1  1  0.64562905  0.26891366  0.82928705  1
  O  O2  1  0.22101793  0.61988771  0.47395658  1
  O  O3  1  0.95340204  0.69277841  0.85289258  1
  O  O4  1  0.38648790  0.85232937  0.73505664  1
  Cr  Cr5  1  0.10639784  0.90281492  0.66591269  1
  Cr  Cr6  1  0.81237262  0.49003634  0.37159920  1
  O  O7  1  0.78250849  0.98495227  0.65354013  1
  O  O8  1  0.64781421  0.28196704  0.33386391  1
  O  O9  1  0.95717514  0.18860285  0.84828264  1
  Cr  Cr10  1  0.09905317  0.40599528  0.67997211  1
  Cr  Cr11  1  0.54263377  0.04698598  0.53728259  1
  O  O12  1  0.52035922  0.53763944  0.02309221  1
  N  N13  1  0.79434913  0.48215252  0.63187951  1
  Cr  Cr14  1  0.38020656  0.34820348  0.25169167  1
  O  O15  1  0.25496474  0.13409919  0.47510612  1
  O  O16  1  0.09207808  0.40122434  0.20265800  1
  O  O17  1  0.39301336  0.31354648  0.73227894  1
  O  O18  1  0.52243572  0.07026180  0.03640227  1
  O  O19  1  0.68785143  0.77965587  0.34747750  1
  Rh  Rh20  1  0.47525534  0.75393945  0.57934195  1
  O  O21  1  0.14214447  0.98535967  0.71944642  1
  O  O22  1  0.15970695  0.12569426  0.25534001  1
  O  O23  1  0.79208493  0.38964313  0.90643752  1
  Er  Er24  1  0.97371423  0.75956076  0.08140063  1
  W  W25  1  0.96998507  0.25473693  0.58318591  1
  O  O26  1  0.25063697  0.49899077  0.72231126  1
  O  O27  1  0.80871892  0.53609449  0.44403413  1
  Pd  Pd28  1  0.47649401  0.26162425  0.08198465  1
  O  O29  1  0.35326681  0.60209137  0.24844928  1
  O  O30  1  0.60382342  0.90821946  0.92361438  1
  O  O31  1  0.70375055  0.00811245  0.44065234  1
