# generated using pymatgen
data_Cs2Li2Ta2AgAsHS6O5
_symmetry_space_group_name_H-M   'P 1'
_cell_length_a   5.57767487
_cell_length_b   7.18536806
_cell_length_c   7.73958206
_cell_angle_alpha   113.42806244
_cell_angle_beta   89.49917603
_cell_angle_gamma   90.62177277
_symmetry_Int_Tables_number   1
_chemical_formula_structural   Cs2Li2Ta2AgAsHS6O5
_chemical_formula_sum   'Cs2 Li2 Ta2 Ag1 As1 H1 S6 O5'
_cell_volume   284.59257759
_cell_formula_units_Z   1
loop_
 _symmetry_equiv_pos_site_id
 _symmetry_equiv_pos_as_xyz
  1  'x, y, z'
loop_
 _atom_site_type_symbol
 _atom_site_label
 _atom_site_symmetry_multiplicity
 _atom_site_fract_x
 _atom_site_fract_y
 _atom_site_fract_z
 _atom_site_occupancy
  S  S0  1  0.76914901  0.31000170  0.14515424  1
  Cs  Cs1  1  0.27246550  0.49175480  0.50621033  1
  Ta  Ta2  1  0.51645523  0.15655836  0.83798748  1
  S  S3  1  0.26584372  0.00527143  0.52814329  1
  S  S4  1  0.26985428  0.46392602  0.99319392  1
  S  S5  1  0.76334375  0.31233034  0.68487597  1
  S  S6  1  0.76824945  0.85087579  0.67994714  1
  Ta  Ta7  1  0.01837202  0.16364910  0.84193671  1
  S  S8  1  0.27260083  0.00285470  0.98706323  1
  Cs  Cs9  1  0.76776469  0.82361281  0.16735953  1
  As  As10  1  0.81371182  0.93334109  0.88160801  1
  O  O11  1  0.01714116  0.82738751  0.04856354  1
  O  O12  1  0.44077793  0.68119460  0.24777214  1
  Li  Li13  1  0.82713073  0.67580658  0.27274334  1
  Ag  Ag14  1  0.45554906  0.14586921  0.44059429  1
  O  O15  1  0.98696822  0.05827964  0.66974813  1
  O  O16  1  0.49626058  0.60843402  0.69093359  1
  Li  Li17  1  0.21821068  0.52148360  0.90289950  1
  H  H18  1  0.41342714  0.62630326  0.39657992  1
  O  O19  1  0.71149540  0.23021777  0.10924654  1
