# generated using pymatgen
data_Li5Gd4TmAlS8O4F3
_symmetry_space_group_name_H-M   'P 1'
_cell_length_a   5.80531979
_cell_length_b   6.03101778
_cell_length_c   6.51185846
_cell_angle_alpha   100.15091705
_cell_angle_beta   81.52721405
_cell_angle_gamma   86.51661682
_symmetry_Int_Tables_number   1
_chemical_formula_structural   Li5Gd4TmAlS8O4F3
_chemical_formula_sum   'Li5 Gd4 Tm1 Al1 S8 O4 F3'
_cell_volume   221.09251621
_cell_formula_units_Z   1
loop_
 _symmetry_equiv_pos_site_id
 _symmetry_equiv_pos_as_xyz
  1  'x, y, z'
loop_
 _atom_site_type_symbol
 _atom_site_label
 _atom_site_symmetry_multiplicity
 _atom_site_fract_x
 _atom_site_fract_y
 _atom_site_fract_z
 _atom_site_occupancy
  Tm  Tm0  1  0.80074978  0.53103381  0.64810157  1
  Gd  Gd1  1  0.94480622  0.24416757  0.07725880  1
  S  S2  1  0.45241377  0.74588430  0.57360661  1
  S  S3  1  0.58979630  0.45732549  0.00113811  1
  Gd  Gd4  1  0.23608470  0.67551589  0.93076324  1
  Gd  Gd5  1  0.37804171  0.38358364  0.35899150  1
  Gd  Gd6  1  0.08756713  0.95383132  0.50242722  1
  Li  Li7  1  0.66005605  0.80897176  0.21909940  1
  S  S8  1  0.31058699  0.03139186  0.14406997  1
  S  S9  1  0.72466767  0.16261578  0.43731958  1
  S  S10  1  0.01672728  0.59513444  0.29423022  1
  Li  Li11  1  0.52094835  0.10333940  0.78804386  1
  S  S12  1  0.87097764  0.88134402  0.86828709  1
  S  S13  1  0.15581301  0.31072137  0.71463698  1
  F  F14  1  0.80116481  0.17274667  0.57421494  1
  O  O15  1  0.70159519  0.58285874  0.42102742  1
  F  F16  1  0.18780611  0.79592502  0.70988882  1
  S  S17  1  0.42850941  0.42931998  0.26779115  1
  Li  Li18  1  0.42968959  0.83404595  0.99415839  1
  F  F19  1  0.77350092  0.68251115  0.92892420  1
  Li  Li20  1  0.44954979  0.10619070  0.67615646  1
  O  O21  1  0.27528682  0.64887124  0.20179571  1
  O  O22  1  0.24367508  0.30745283  0.43634391  1
  Al  Al23  1  0.94677210  0.50446385  0.63399559  1
  O  O24  1  0.49288389  0.20443673  0.05486426  1
  Li  Li25  1  0.92687672  0.83004332  0.29690182  1
