# generated using pymatgen
data_AcLa7Ce5C8
_symmetry_space_group_name_H-M   'P 1'
_cell_length_a   3.30712891
_cell_length_b   3.31064701
_cell_length_c   3.29919100
_cell_angle_alpha   61.40666962
_cell_angle_beta   61.54027557
_cell_angle_gamma   63.13861084
_symmetry_Int_Tables_number   1
_chemical_formula_structural   AcLa7Ce5C8
_chemical_formula_sum   'Ac1 La7 Ce5 C8'
_cell_volume   26.68639571
_cell_formula_units_Z   1
loop_
 _symmetry_equiv_pos_site_id
 _symmetry_equiv_pos_as_xyz
  1  'x, y, z'
loop_
 _atom_site_type_symbol
 _atom_site_label
 _atom_site_symmetry_multiplicity
 _atom_site_fract_x
 _atom_site_fract_y
 _atom_site_fract_z
 _atom_site_occupancy
  Ac  Ac0  1  0.98090523  0.26117644  0.44874644  1
  La  La1  1  0.35402855  0.84098405  0.45720571  1
  Ce  Ce2  1  0.84868860  0.33979499  0.45011109  1
  C  C3  1  0.60634899  0.09692352  0.47693527  1
  Ce  Ce4  1  0.67686957  0.19393185  0.80150771  1
  Ce  Ce5  1  0.85421324  0.84207559  0.46139789  1
  Ce  Ce6  1  0.19999322  0.65632856  0.80189371  1
  C  C7  1  0.10442115  0.09655721  0.46912789  1
  La  La8  1  0.67755985  0.66268474  0.79540235  1
  La  La9  1  0.01381339  0.00254977  0.14144033  1
  La  La10  1  0.18467236  0.18703873  0.77899081  1
  La  La11  1  0.53368771  0.00459672  0.14652407  1
  C  C12  1  0.61137593  0.59386802  0.47258666  1
  C  C13  1  0.10187626  0.59115648  0.47347349  1
  Ce  Ce14  1  0.36536935  0.35197943  0.48519754  1
  C  C15  1  0.43867233  0.42420471  0.79976118  1
  La  La16  1  0.53276432  0.52426720  0.13614230  1
  C  C17  1  0.77541155  0.25814581  0.12747613  1
  C  C18  1  0.26989827  0.75766790  0.12202916  1
  C  C19  1  0.77560723  0.76568097  0.13830921  1
  La  La20  1  0.01496701  0.52684993  0.14560458  1
