# generated using pymatgen
data_K2NaLiCaBeAg2GePWSO16
_symmetry_space_group_name_H-M   'P 1'
_cell_length_a   5.78641176
_cell_length_b   5.76380777
_cell_length_c   6.03553581
_cell_angle_alpha   81.31048584
_cell_angle_beta   91.76712799
_cell_angle_gamma   110.40325928
_symmetry_Int_Tables_number   1
_chemical_formula_structural   K2NaLiCaBeAg2GePWSO16
_chemical_formula_sum   'K2 Na1 Li1 Ca1 Be1 Ag2 Ge1 P1 W1 S1 O16'
_cell_volume   186.44951766
_cell_formula_units_Z   1
loop_
 _symmetry_equiv_pos_site_id
 _symmetry_equiv_pos_as_xyz
  1  'x, y, z'
loop_
 _atom_site_type_symbol
 _atom_site_label
 _atom_site_symmetry_multiplicity
 _atom_site_fract_x
 _atom_site_fract_y
 _atom_site_fract_z
 _atom_site_occupancy
  Li  Li0  1  0.60375619  0.89714205  0.32362002  1
  Be  Be1  1  0.71778911  0.30780607  0.05891499  1
  O  O2  1  0.63129598  0.20870250  0.79836887  1
  Na  Na3  1  0.08742038  0.87304795  0.34188557  1
  Ge  Ge4  1  0.15493916  0.46577075  0.09023054  1
  O  O5  1  0.71815258  0.67984933  0.52053678  1
  Ca  Ca6  1  0.79409415  0.88480484  0.83213830  1
  O  O7  1  0.15969786  0.10806556  0.64112186  1
  W  W8  1  0.45310646  0.37021160  0.57461768  1
  O  O9  1  0.92800641  0.59325773  0.04150526  1
  O  O10  1  0.29132080  0.57142889  0.33551016  1
  O  O11  1  0.51681530  0.20688811  0.29906204  1
  O  O12  1  0.92473835  0.14980212  0.12613079  1
  O  O13  1  0.37461275  0.53550863  0.86514688  1
  O  O14  1  0.16927019  0.79322469  0.01878664  1
  O  O15  1  0.71541232  0.29046503  0.41004300  1
  O  O16  1  0.18376385  0.55661821  0.73356736  1
  P  P17  1  0.61545342  0.05505616  0.50240731  1
  O  O18  1  0.31209773  0.06311139  0.48716852  1
  O  O19  1  0.56222987  0.55964714  0.94746405  1
  S  S20  1  0.25764659  0.56201494  0.92942137  1
  O  O21  1  0.15628868  0.34318131  0.02172109  1
  Ag  Ag22  1  0.72391820  0.55183655  0.67982125  1
  K  K23  1  0.70174092  0.06628268  0.06511830  1
  K  K24  1  0.18662818  0.56281090  0.37798855  1
  Ag  Ag25  1  0.15900952  0.06451473  0.76205510  1
  O  O26  1  0.70682108  0.82979447  0.41154566  1
  O  O27  1  0.69312924  0.06217935  0.70384508  1
