# generated using pymatgen
data_BaLiThZn2CdCuNi2As2Se4O11
_symmetry_space_group_name_H-M   'P 1'
_cell_length_a   4.60405970
_cell_length_b   5.70422029
_cell_length_c   10.47650051
_cell_angle_alpha   98.39012909
_cell_angle_beta   96.08273315
_cell_angle_gamma   94.40097046
_symmetry_Int_Tables_number   1
_chemical_formula_structural   BaLiThZn2CdCuNi2As2Se4O11
_chemical_formula_sum   'Ba1 Li1 Th1 Zn2 Cd1 Cu1 Ni2 As2 Se4 O11'
_cell_volume   269.47130735
_cell_formula_units_Z   1
loop_
 _symmetry_equiv_pos_site_id
 _symmetry_equiv_pos_as_xyz
  1  'x, y, z'
loop_
 _atom_site_type_symbol
 _atom_site_label
 _atom_site_symmetry_multiplicity
 _atom_site_fract_x
 _atom_site_fract_y
 _atom_site_fract_z
 _atom_site_occupancy
  Th  Th0  1  0.48379156  0.85142434  0.81837898  1
  O  O1  1  0.00679919  0.76682442  0.90440762  1
  Cu  Cu2  1  0.09696675  0.98536760  0.04673789  1
  Ba  Ba3  1  0.29437706  0.46374875  0.43330449  1
  Zn  Zn4  1  0.69089431  0.02846010  0.25432271  1
  Se  Se5  1  0.17635193  0.79395682  0.23513985  1
  O  O6  1  0.77473754  0.21853976  0.41639316  1
  Se  Se7  1  0.88062859  0.77149355  0.61945224  1
  Se  Se8  1  0.60016733  0.20899788  0.04863836  1
  Cd  Cd9  1  0.09376103  0.50689656  0.02438726  1
  Se  Se10  1  0.41012055  0.31207183  0.72410744  1
  Zn  Zn11  1  0.85304987  0.15863669  0.59677279  1
  O  O12  1  0.06621985  0.24287371  0.14287311  1
  O  O13  1  0.16340819  0.72659606  0.39309412  1
  Li  Li14  1  0.27350971  0.62759584  0.11065419  1
  O  O15  1  0.94101208  0.84156150  0.90903491  1
  As  As16  1  0.03353598  0.77105588  0.64890331  1
  O  O17  1  0.31340608  0.59902763  0.78910202  1
  O  O18  1  0.52631718  0.01568546  0.08005507  1
  Ni  Ni19  1  0.46279883  0.49078652  0.56813139  1
  O  O20  1  0.80497497  0.38707542  0.73593307  1
  O  O21  1  0.54644954  0.41676083  0.32538229  1
  As  As22  1  0.84009624  0.12296671  0.98228598  1
  Ni  Ni23  1  0.39541104  0.06387889  0.34025297  1
  O  O24  1  0.70310420  0.86142659  0.51499295  1
  O  O25  1  0.23545720  0.12371828  0.58733737  1
