# generated using pymatgen
data_U2Cu3P4Pd4WSeNO3
_symmetry_space_group_name_H-M   'P 1'
_cell_length_a   4.27402067
_cell_length_b   5.80731344
_cell_length_c   8.41395569
_cell_angle_alpha   107.70613098
_cell_angle_beta   101.64939880
_cell_angle_gamma   101.90209198
_symmetry_Int_Tables_number   1
_chemical_formula_structural   U2Cu3P4Pd4WSeNO3
_chemical_formula_sum   'U2 Cu3 P4 Pd4 W1 Se1 N1 O3'
_cell_volume   186.65874081
_cell_formula_units_Z   1
loop_
 _symmetry_equiv_pos_site_id
 _symmetry_equiv_pos_as_xyz
  1  'x, y, z'
loop_
 _atom_site_type_symbol
 _atom_site_label
 _atom_site_symmetry_multiplicity
 _atom_site_fract_x
 _atom_site_fract_y
 _atom_site_fract_z
 _atom_site_occupancy
  U  U0  1  0.97316700  0.04970611  0.85434270  1
  U  U1  1  0.47657478  0.53903449  0.35137880  1
  P  P2  1  0.27832162  0.95883566  0.55070949  1
  Pd  Pd3  1  0.84716511  0.16749756  0.47985435  1
  P  P4  1  0.67227703  0.13257591  0.15864605  1
  P  P5  1  0.17447063  0.64378703  0.65316862  1
  Pd  Pd6  1  0.10541679  0.92176193  0.22854981  1
  P  P7  1  0.78694582  0.44909614  0.04920802  1
  Pd  Pd8  1  0.59941947  0.42780063  0.72972590  1
  Pd  Pd9  1  0.36382064  0.67342085  0.97862518  1
  Cu  Cu10  1  0.81347847  0.96928817  0.79561257  1
  W  W11  1  0.22182001  0.95697862  0.21141636  1
  O  O12  1  0.55492872  0.86497903  0.11149977  1
  Cu  Cu13  1  0.23772192  0.55127287  0.79790497  1
  Cu  Cu14  1  0.80835265  0.54736459  0.23135857  1
  N  N15  1  0.03308996  0.77393156  0.03107367  1
  O  O16  1  0.12622963  0.86085117  0.54579777  1
  O  O17  1  0.11446853  0.29378086  0.11003458  1
  Se  Se18  1  0.62923717  0.36047065  0.61173755  1
