# generated using pymatgen
data_K2Rb2LiNd4UCu3Ag2S8IO6
_symmetry_space_group_name_H-M   'P 1'
_cell_length_a   6.23268414
_cell_length_b   6.38223219
_cell_length_c   8.49418640
_cell_angle_alpha   95.53619385
_cell_angle_beta   93.05429077
_cell_angle_gamma   103.21028137
_symmetry_Int_Tables_number   1
_chemical_formula_structural   K2Rb2LiNd4UCu3Ag2S8IO6
_chemical_formula_sum   'K2 Rb2 Li1 Nd4 U1 Cu3 Ag2 S8 I1 O6'
_cell_volume   326.41909793
_cell_formula_units_Z   1
loop_
 _symmetry_equiv_pos_site_id
 _symmetry_equiv_pos_as_xyz
  1  'x, y, z'
loop_
 _atom_site_type_symbol
 _atom_site_label
 _atom_site_symmetry_multiplicity
 _atom_site_fract_x
 _atom_site_fract_y
 _atom_site_fract_z
 _atom_site_occupancy
  K  K0  1  0.13429612  0.13141343  0.96913624  1
  K  K1  1  0.63837636  0.63284409  0.96789569  1
  O  O2  1  0.39671659  0.36483935  0.74222147  1
  Ag  Ag3  1  0.63158792  0.13020572  0.23462021  1
  Rb  Rb4  1  0.63611734  0.63209432  0.49763429  1
  O  O5  1  0.86789382  0.89770198  0.73490357  1
  O  O6  1  0.38485071  0.88198411  0.73211175  1
  U  U7  1  0.63167161  0.13225570  0.73807710  1
  O  O8  1  0.63677424  0.13329731  0.99226451  1
  Rb  Rb9  1  0.13025093  0.13571186  0.50053322  1
  O  O10  1  0.62831593  0.13034661  0.48022324  1
  O  O11  1  0.88161516  0.38610637  0.74648774  1
  Ag  Ag12  1  0.13131057  0.63295269  0.74269545  1
  I  I13  1  0.13809089  0.63302588  0.22776175  1
  S  S14  1  0.05474297  0.79075706  0.19331561  1
  S  S15  1  0.57348526  0.37215906  0.86199516  1
  S  S16  1  0.54743588  0.11733904  0.35169297  1
  Cu  Cu17  1  0.26908743  0.17419088  0.45860150  1
  Cu  Cu18  1  0.84420955  0.06948341  0.24618992  1
  S  S19  1  0.05707700  0.78495222  0.67823887  1
  Nd  Nd20  1  0.77124184  0.04612599  0.70846951  1
  Cu  Cu21  1  0.84534073  0.57401055  0.24988610  1
  Nd  Nd22  1  0.34864789  0.69384313  0.99869955  1
  S  S23  1  0.57174873  0.87458974  0.86518717  1
  Nd  Nd24  1  0.77444476  0.54582119  0.70677757  1
  S  S25  1  0.55299240  0.61904049  0.34911186  1
  Li  Li26  1  0.27921382  0.67623645  0.46458256  1
  S  S27  1  0.05926432  0.28246772  0.67351782  1
  S  S28  1  0.05779527  0.29313189  0.19240278  1
  Nd  Nd29  1  0.35661063  0.19340357  0.99659055  1
