# generated using pymatgen
data_Li3PmU2(InPd2)2
_symmetry_space_group_name_H-M   'P 1'
_cell_length_a   4.64045238
_cell_length_b   6.07348442
_cell_length_c   6.10585976
_cell_angle_alpha   117.72708130
_cell_angle_beta   88.19826508
_cell_angle_gamma   90.16083527
_symmetry_Int_Tables_number   1
_chemical_formula_structural   Li3PmU2(InPd2)2
_chemical_formula_sum   'Li3 Pm1 U2 In2 Pd4'
_cell_volume   152.23695631
_cell_formula_units_Z   1
loop_
 _symmetry_equiv_pos_site_id
 _symmetry_equiv_pos_as_xyz
  1  'x, y, z'
loop_
 _atom_site_type_symbol
 _atom_site_label
 _atom_site_symmetry_multiplicity
 _atom_site_fract_x
 _atom_site_fract_y
 _atom_site_fract_z
 _atom_site_occupancy
  In  In0  1  0.85799897  0.27489135  0.18399985  1
  U  U1  1  0.35688379  0.09891543  0.36853439  1
  Pd  Pd2  1  0.85984349  0.77530384  0.20131551  1
  U  U3  1  0.85984081  0.77582282  0.69424629  1
  Pd  Pd4  1  0.35643539  0.09630756  0.86331433  1
  In  In5  1  0.35473219  0.59170127  0.87308931  1
  Pd  Pd6  1  0.85598594  0.27354971  0.68789023  1
  Pd  Pd7  1  0.36147100  0.60399044  0.37245163  1
  Li  Li8  1  0.60112536  0.26163423  0.67148620  1
  Li  Li9  1  0.60296452  0.75897372  0.17649335  1
  Li  Li10  1  0.10523351  0.75999671  0.67557061  1
  Pm  Pm11  1  0.10150438  0.26301339  0.17385978  1
