# generated using pymatgen
data_CaEuMg4Sc4TaTi2Be2Tl2Zn3HgTe3CN
_symmetry_space_group_name_H-M   'P 1'
_cell_length_a   4.88512754
_cell_length_b   6.39535809
_cell_length_c   6.57602072
_cell_angle_alpha   112.87458038
_cell_angle_beta   89.61576843
_cell_angle_gamma   91.39128113
_symmetry_Int_Tables_number   1
_chemical_formula_structural   CaEuMg4Sc4TaTi2Be2Tl2Zn3HgTe3CN
_chemical_formula_sum
'Ca1 Eu1 Mg4 Sc4 Ta1 Ti2 Be2 Tl2 Zn3 Hg1 Te3 C1 N1'
_cell_volume   189.23539618
_cell_formula_units_Z   1
loop_
 _symmetry_equiv_pos_site_id
 _symmetry_equiv_pos_as_xyz
  1  'x, y, z'
loop_
 _atom_site_type_symbol
 _atom_site_label
 _atom_site_symmetry_multiplicity
 _atom_site_fract_x
 _atom_site_fract_y
 _atom_site_fract_z
 _atom_site_occupancy
  Te  Te0  1  0.66361475  0.77570361  0.15888895  1
  Te  Te1  1  0.15999997  0.15679079  0.86268550  1
  Mg  Mg2  1  0.15985909  0.09402592  0.38661149  1
  Zn  Zn3  1  0.65996444  0.15005217  0.09254052  1
  Te  Te4  1  0.66260076  0.42741728  0.51740855  1
  Mg  Mg5  1  0.15809493  0.63949072  0.83120596  1
  Mg  Mg6  1  0.66876447  0.88660103  0.61224383  1
  Mg  Mg7  1  0.16360900  0.55079162  0.29178298  1
  Zn  Zn8  1  0.98181677  0.26425284  0.95963526  1
  Sc  Sc9  1  0.36633220  0.40085796  0.71341664  1
  Zn  Zn10  1  0.73385161  0.01586130  0.46483302  1
  Sc  Sc11  1  0.65743339  0.42949992  0.28686890  1
  Sc  Sc12  1  0.07557830  0.85289741  0.13419080  1
  Sc  Sc13  1  0.36521485  0.89126843  0.71357381  1
  Eu  Eu14  1  0.11605316  0.08844228  0.81155372  1
  Ca  Ca15  1  0.61644244  0.58954197  0.30747113  1
  C  C16  1  0.62052089  0.59692693  0.80476975  1
  N  N17  1  0.10841531  0.08781309  0.30781144  1
  Hg  Hg18  1  0.43795010  0.71508473  0.34505355  1
  Ti  Ti19  1  0.93703604  0.21495782  0.83831936  1
  Ti  Ti20  1  0.69402099  0.96561879  0.58566535  1
  Ta  Ta21  1  0.18397845  0.46595952  0.09480926  1
  Be  Be22  1  0.92568016  0.30170339  0.18426755  1
  Tl  Tl23  1  0.42792466  0.96934104  0.52847564  1
  Tl  Tl24  1  0.92268658  0.63663906  0.85260797  1
  Be  Be25  1  0.42729172  0.30659661  0.19112168  1
