# generated using pymatgen
data_Cs2Nb2Cr6SiAsS18
_symmetry_space_group_name_H-M   'P 1'
_cell_length_a   6.82235384
_cell_length_b   7.77538586
_cell_length_c   9.11760807
_cell_angle_alpha   89.96515656
_cell_angle_beta   87.12135315
_cell_angle_gamma   87.90393066
_symmetry_Int_Tables_number   1
_chemical_formula_structural   Cs2Nb2Cr6SiAsS18
_chemical_formula_sum   'Cs2 Nb2 Cr6 Si1 As1 S18'
_cell_volume   482.72271570
_cell_formula_units_Z   1
loop_
 _symmetry_equiv_pos_site_id
 _symmetry_equiv_pos_as_xyz
  1  'x, y, z'
loop_
 _atom_site_type_symbol
 _atom_site_label
 _atom_site_symmetry_multiplicity
 _atom_site_fract_x
 _atom_site_fract_y
 _atom_site_fract_z
 _atom_site_occupancy
  S  S0  1  0.38510802  0.78312916  0.45274928  1
  S  S1  1  0.31604466  0.49060509  0.15931065  1
  Nb  Nb2  1  0.54618341  0.26851654  0.69994640  1
  S  S3  1  0.43409303  0.02124350  0.83361149  1
  Nb  Nb4  1  0.31635880  0.26001295  0.96679670  1
  S  S5  1  0.98615557  0.26271886  0.89835870  1
  Si  Si6  1  0.00509254  0.27401254  0.66246182  1
  S  S7  1  0.80207270  0.47972861  0.60062039  1
  As  As8  1  0.46384037  0.76308644  0.26062584  1
  S  S9  1  0.81766057  0.06297042  0.60339165  1
  S  S10  1  0.31697163  0.02836288  0.15263151  1
  S  S11  1  0.80200887  0.76755309  0.24866846  1
  Cs  Cs12  1  0.94990963  0.76341760  0.89666057  1
  S  S13  1  0.44568291  0.49989370  0.84497726  1
  Cs  Cs14  1  0.79355049  0.26701456  0.26848274  1
  S  S15  1  0.29938468  0.28267208  0.53930330  1
  Cr  Cr16  1  0.01416970  0.15092172  0.50773937  1
  Cr  Cr17  1  0.51005507  0.25451967  0.76632452  1
  S  S18  1  0.52529204  0.55507272  0.88262856  1
  S  S19  1  0.52273536  0.10201330  0.11362110  1
  S  S20  1  0.02803801  0.60253668  0.12854299  1
  S  S21  1  0.51243556  0.94473892  0.63333404  1
  Cr  Cr22  1  0.51780707  0.73677045  0.24925011  1
  S  S23  1  0.51724714  0.36093259  0.37797531  1
  Cr  Cr24  1  0.02842166  0.32619426  0.98037374  1
  Cr  Cr25  1  0.01736739  0.72489733  0.75067347  1
  Cr  Cr26  1  0.02157809  0.23085405  0.24525721  1
  S  S27  1  0.01544151  0.01956305  0.87423456  1
  S  S28  1  0.00679310  0.44362608  0.62698734  1
  S  S29  1  0.02470796  0.86062771  0.37448668  1
