# generated using pymatgen
data_Rb2Na2Li3CaUBe2NbNiH2O11F7
_symmetry_space_group_name_H-M   'P 1'
_cell_length_a   5.80484390
_cell_length_b   6.44007826
_cell_length_c   7.22073078
_cell_angle_alpha   109.34147644
_cell_angle_beta   90.22247314
_cell_angle_gamma   88.73836517
_symmetry_Int_Tables_number   1
_chemical_formula_structural   Rb2Na2Li3CaUBe2NbNiH2O11F7
_chemical_formula_sum   'Rb2 Na2 Li3 Ca1 U1 Be2 Nb1 Ni1 H2 O11 F7'
_cell_volume   254.63898696
_cell_formula_units_Z   1
loop_
 _symmetry_equiv_pos_site_id
 _symmetry_equiv_pos_as_xyz
  1  'x, y, z'
loop_
 _atom_site_type_symbol
 _atom_site_label
 _atom_site_symmetry_multiplicity
 _atom_site_fract_x
 _atom_site_fract_y
 _atom_site_fract_z
 _atom_site_occupancy
  O  O0  1  0.70852178  0.90609622  0.96337163  1
  Rb  Rb1  1  0.95123553  0.20234585  0.82552260  1
  O  O2  1  0.69471639  0.85804468  0.48702756  1
  Nb  Nb3  1  0.45245993  0.12639262  0.07710307  1
  O  O4  1  0.20459436  0.91019732  0.96471614  1
  Rb  Rb5  1  0.46200955  0.55212528  0.62755609  1
  O  O6  1  0.69975758  0.37553847  0.22604394  1
  O  O7  1  0.20908903  0.37185046  0.22218931  1
  O  O8  1  0.95841241  0.56407404  0.64686406  1
  O  O9  1  0.21789582  0.85876250  0.48590541  1
  Na  Na10  1  0.45779315  0.64346415  0.10407659  1
  U  U11  1  0.95801455  0.61555427  0.36945686  1
  O  O12  1  0.45657527  0.19881900  0.81078970  1
  Be  Be13  1  0.45348069  0.01163187  0.54197305  1
  O  O14  1  0.45396063  0.09984648  0.35570925  1
  O  O15  1  0.95205420  0.66190588  0.09152777  1
  Be  Be16  1  0.95783126  0.75443721  0.91023600  1
  Na  Na17  1  0.94846660  0.10307913  0.32425219  1
  Li  Li18  1  0.06034439  0.79632992  0.32772303  1
  H  H19  1  0.03860418  0.34109908  0.09142424  1
  F  F20  1  0.27340478  0.05339659  0.38727462  1
  O  O21  1  0.92660660  0.43713140  0.20284724  1
  F  F22  1  0.35711291  0.54028392  0.39430287  1
  F  F23  1  0.36231178  0.69391900  0.87854123  1
  Li  Li24  1  0.56514561  0.80734229  0.53143871  1
  F  F25  1  0.19677213  0.18188414  0.86216217  1
  F  F26  1  0.75446934  0.93101501  0.19204518  1
  Ni  Ni27  1  0.06369243  0.31370181  0.52775502  1
  Li  Li28  1  0.96126544  0.80966479  0.89465177  1
  Ca  Ca29  1  0.56299514  0.30113390  0.03828009  1
  F  F30  1  0.86104804  0.57648784  0.67417872  1
  H  H31  1  0.44821152  0.79655099  0.98204195  1
  F  F32  1  0.76302457  0.07187538  0.67761457  1
