# generated using pymatgen
data_Rb2Li3Mg5Cu2NiPd(Cl3O5)2
_symmetry_space_group_name_H-M   'P 1'
_cell_length_a   6.26504993
_cell_length_b   6.72973442
_cell_length_c   7.22362089
_cell_angle_alpha   114.35607147
_cell_angle_beta   102.00964355
_cell_angle_gamma   104.42293549
_symmetry_Int_Tables_number   1
_chemical_formula_structural   Rb2Li3Mg5Cu2NiPd(Cl3O5)2
_chemical_formula_sum   'Rb2 Li3 Mg5 Cu2 Ni1 Pd1 Cl6 O10'
_cell_volume   251.48845742
_cell_formula_units_Z   1
loop_
 _symmetry_equiv_pos_site_id
 _symmetry_equiv_pos_as_xyz
  1  'x, y, z'
loop_
 _atom_site_type_symbol
 _atom_site_label
 _atom_site_symmetry_multiplicity
 _atom_site_fract_x
 _atom_site_fract_y
 _atom_site_fract_z
 _atom_site_occupancy
  Cl  Cl0  1  0.60600632  0.89566183  0.42851442  1
  Cl  Cl1  1  0.51964605  0.30675983  0.92026556  1
  Rb  Rb2  1  0.55380410  0.79976535  0.87581670  1
  Ni  Ni3  1  0.81274855  0.30497536  0.63238543  1
  Cl  Cl4  1  0.01481110  0.71837521  0.83481598  1
  Cl  Cl5  1  0.59881121  0.31733087  0.40435398  1
  Cl  Cl6  1  0.10162989  0.30406910  0.32846022  1
  Rb  Rb7  1  0.06601698  0.80288541  0.37369552  1
  Cl  Cl8  1  0.02740975  0.29289749  0.84781301  1
  Pd  Pd9  1  0.31341884  0.30659506  0.13105030  1
  Cu  Cu10  1  0.66092777  0.01837824  0.63561028  1
  Mg  Mg11  1  0.16669574  0.91584766  0.43360311  1
  Mg  Mg12  1  0.16757461  0.12302775  0.83908141  1
  Cu  Cu13  1  0.16869901  0.72502446  0.04120077  1
  O  O14  1  0.66509163  0.31943777  0.23533820  1
  Mg  Mg15  1  0.66476530  0.62494141  0.84085751  1
  Li  Li16  1  0.66403651  0.42094925  0.43534586  1
  O  O17  1  0.16391650  0.62003249  0.84222066  1
  Li  Li18  1  0.65838641  0.82033378  0.23426443  1
  O  O19  1  0.16602331  0.81621546  0.23304792  1
  O  O20  1  0.66174579  0.11582408  0.82671237  1
  O  O21  1  0.16443902  0.22311361  0.03560892  1
  Mg  Mg22  1  0.16359136  0.51870149  0.63624322  1
  O  O23  1  0.65714592  0.72769016  0.03680338  1
  Li  Li24  1  0.65731549  0.21746445  0.03851801  1
  O  O25  1  0.16241643  0.01890935  0.63631678  1
  O  O26  1  0.66325390  0.92325133  0.44643286  1
  O  O27  1  0.16301697  0.42911762  0.43575332  1
  O  O28  1  0.65503591  0.51508832  0.64080137  1
  Mg  Mg29  1  0.15982468  0.32127208  0.23330286  1
