# generated using pymatgen
data_KNaEr2V3Ni2As2O15F7
_symmetry_space_group_name_H-M   'P 1'
_cell_length_a   6.13961363
_cell_length_b   6.18518209
_cell_length_c   6.08280230
_cell_angle_alpha   67.99913025
_cell_angle_beta   71.31931305
_cell_angle_gamma   75.05374908
_symmetry_Int_Tables_number   1
_chemical_formula_structural   KNaEr2V3Ni2As2O15F7
_chemical_formula_sum   'K1 Na1 Er2 V3 Ni2 As2 O15 F7'
_cell_volume   200.37095072
_cell_formula_units_Z   1
loop_
 _symmetry_equiv_pos_site_id
 _symmetry_equiv_pos_as_xyz
  1  'x, y, z'
loop_
 _atom_site_type_symbol
 _atom_site_label
 _atom_site_symmetry_multiplicity
 _atom_site_fract_x
 _atom_site_fract_y
 _atom_site_fract_z
 _atom_site_occupancy
  O  O0  1  0.92418611  0.61885607  0.29513830  1
  V  V1  1  0.47583702  0.16362998  0.97161645  1
  F  F2  1  0.43533725  0.54878634  0.29895467  1
  O  O3  1  0.37881204  0.04780690  0.25994441  1
  V  V4  1  0.13688879  0.82528728  0.25050074  1
  F  F5  1  0.87244606  0.12897788  0.26871136  1
  F  F6  1  0.06345473  0.75383717  0.55873066  1
  F  F7  1  0.74235594  0.86420214  0.94350612  1
  Na  Na8  1  0.55266762  0.74895567  0.60329038  1
  F  F9  1  0.16944782  0.41901070  0.94561607  1
  V  V10  1  0.80287892  0.49656361  0.10962233  1
  O  O11  1  0.67091686  0.38898656  0.92946756  1
  O  O12  1  0.24412166  0.91686296  0.98205423  1
  K  K13  1  0.06900760  0.22336796  0.61759448  1
  F  F14  1  0.54678702  0.21430568  0.66852033  1
  O  O15  1  0.54922408  0.08276230  0.77725661  1
  O  O16  1  0.59426957  0.15400520  0.10319354  1
  O  O17  1  0.75726140  0.65820432  0.26776659  1
  Ni  Ni18  1  0.91096365  0.90629119  0.44664505  1
  Er  Er19  1  0.41615552  0.93772781  0.27860126  1
  O  O20  1  0.24176928  0.68444407  0.46256950  1
  O  O21  1  0.21697335  0.64776427  0.10552165  1
  O  O22  1  0.11310511  0.09683872  0.61592597  1
  As  As23  1  0.89251083  0.40875429  0.11526844  1
  As  As24  1  0.40391415  0.89620841  0.62000161  1
  F  F25  1  0.06363975  0.17716303  0.95908266  1
  Er  Er26  1  0.88250077  0.39797845  0.72827959  1
  Ni  Ni27  1  0.43223023  0.86153817  0.94508481  1
  O  O28  1  0.75260860  0.59837604  0.95178449  1
  O  O29  1  0.05205071  0.17490932  0.27647611  1
  O  O30  1  0.69986951  0.69557470  0.60581118  1
  O  O31  1  0.59613180  0.13462043  0.49812663  1
  O  O32  1  0.25611746  0.66563427  0.76236790  1
