# generated using pymatgen
data_LaHo2LuCr2Cd2Cu4Ni(SO5)3
_symmetry_space_group_name_H-M   'P 1'
_cell_length_a   3.45303035
_cell_length_b   3.48569918
_cell_length_c   16.10587311
_cell_angle_alpha   91.36753845
_cell_angle_beta   91.08594513
_cell_angle_gamma   107.25499725
_symmetry_Int_Tables_number   1
_chemical_formula_structural   LaHo2LuCr2Cd2Cu4Ni(SO5)3
_chemical_formula_sum   'La1 Ho2 Lu1 Cr2 Cd2 Cu4 Ni1 S3 O15'
_cell_volume   185.00780027
_cell_formula_units_Z   1
loop_
 _symmetry_equiv_pos_site_id
 _symmetry_equiv_pos_as_xyz
  1  'x, y, z'
loop_
 _atom_site_type_symbol
 _atom_site_label
 _atom_site_symmetry_multiplicity
 _atom_site_fract_x
 _atom_site_fract_y
 _atom_site_fract_z
 _atom_site_occupancy
  S  S0  1  0.52762079  0.13049906  0.16433804  1
  Ni  Ni1  1  0.38269052  0.81601727  0.69977558  1
  O  O2  1  0.43285093  0.87024736  0.82721245  1
  S  S3  1  0.80291778  0.64629656  0.98388451  1
  La  La4  1  0.91361910  0.87625015  0.28042704  1
  Ho  Ho5  1  0.97486520  0.05206145  0.54214191  1
  S  S6  1  0.60375249  0.30439737  0.41139269  1
  O  O7  1  0.34403616  0.73156631  0.57384741  1
  Ho  Ho8  1  0.09102993  0.24053933  0.86094451  1
  O  O9  1  0.03921968  0.14786090  0.70150590  1
  Cu  Cu10  1  0.16515550  0.39042482  0.07868961  1
  O  O11  1  0.35729846  0.16400415  0.31543052  1
  O  O12  1  0.69156492  0.43385759  0.01094161  1
  Cr  Cr13  1  0.23554191  0.29256263  0.81118184  1
  Cr  Cr14  1  0.64062679  0.18280518  0.17748196  1
  O  O15  1  0.18453333  0.44419992  0.99815655  1
  O  O16  1  0.37323990  0.68520761  0.25852984  1
  Cu  Cu17  1  0.28045264  0.86735755  0.45599422  1
  O  O18  1  0.01574217  0.79999024  0.67018080  1
  Cu  Cu19  1  0.67153102  0.67064619  0.15965536  1
  Cd  Cd20  1  0.77229464  0.05347940  0.68829149  1
  O  O21  1  0.51016921  0.32942912  0.67789310  1
  O  O22  1  0.19867100  0.06702673  0.92801094  1
  O  O23  1  0.88888407  0.61160278  0.32724527  1
  O  O24  1  0.69652259  0.99343127  0.03165683  1
  Cu  Cu25  1  0.12680598  0.38838595  0.31082854  1
  Lu  Lu26  1  0.77340937  0.57104391  0.66425252  1
  O  O27  1  0.82160646  0.14309894  0.34337127  1
  O  O28  1  0.04759045  0.34695199  0.63086706  1
  Cd  Cd29  1  0.23090683  0.76074284  0.93354690  1
  O  O30  1  0.51371402  0.79197878  0.66040051  1
