# generated using pymatgen
data_Pr3(Pd5S7)2
_symmetry_space_group_name_H-M   'P 1'
_cell_length_a   3.95398450
_cell_length_b   7.08693933
_cell_length_c   7.30676985
_cell_angle_alpha   111.69620514
_cell_angle_beta   89.21449280
_cell_angle_gamma   90.34618378
_symmetry_Int_Tables_number   1
_chemical_formula_structural   Pr3(Pd5S7)2
_chemical_formula_sum   'Pr3 Pd10 S14'
_cell_volume   190.22482016
_cell_formula_units_Z   1
loop_
 _symmetry_equiv_pos_site_id
 _symmetry_equiv_pos_as_xyz
  1  'x, y, z'
loop_
 _atom_site_type_symbol
 _atom_site_label
 _atom_site_symmetry_multiplicity
 _atom_site_fract_x
 _atom_site_fract_y
 _atom_site_fract_z
 _atom_site_occupancy
  Pr  Pr0  1  0.94516897  0.69900972  0.45752519  1
  S  S1  1  0.44651031  0.96159661  0.78710490  1
  S  S2  1  0.94044620  0.36508414  0.05050390  1
  S  S3  1  0.94440985  0.62787014  0.79421932  1
  S  S4  1  0.44708753  0.77407569  0.20144346  1
  Pr  Pr5  1  0.44582814  0.36897367  0.79419261  1
  Pr  Pr6  1  0.94775116  0.03288224  0.12905531  1
  S  S7  1  0.94268972  0.11081801  0.53833097  1
  S  S8  1  0.44868410  0.36429715  0.38918215  1
  S  S9  1  0.31681854  0.34831512  0.85702485  1
  Pd  Pd10  1  0.61277270  0.12035592  0.86476588  1
  Pd  Pd11  1  0.73175091  0.80084509  0.47735238  1
  Pd  Pd12  1  0.56907326  0.59194642  0.95351499  1
  S  S13  1  0.34326124  0.86200798  0.96695197  1
  Pd  Pd14  1  0.21304306  0.05830188  0.20048970  1
  Pd  Pd15  1  0.96771640  0.39056894  0.99663669  1
  Pd  Pd16  1  0.95672864  0.84600496  0.87301922  1
  S  S17  1  0.83873749  0.10555994  0.14823234  1
  S  S18  1  0.80615056  0.53997236  0.69396508  1
  Pd  Pd19  1  0.25393158  0.16487211  0.58552986  1
  S  S20  1  0.37461913  0.34608331  0.32426473  1
  S  S21  1  0.84001195  0.63087922  0.20210189  1
  S  S22  1  0.85266161  0.07783996  0.61454958  1
  S  S23  1  0.34893456  0.83457828  0.49341461  1
  Pd  Pd24  1  0.23783135  0.65327734  0.23107716  1
  Pd  Pd25  1  0.78042543  0.34158447  0.39676481  1
  Pd  Pd26  1  0.18042327  0.56313157  0.63475907  1
