# generated using pymatgen
data_Li2CaEu5ScTiCuNiB2WCO24
_symmetry_space_group_name_H-M   'P 1'
_cell_length_a   6.21317005
_cell_length_b   6.33519316
_cell_length_c   8.71609688
_cell_angle_alpha   70.46604156
_cell_angle_beta   68.96411133
_cell_angle_gamma   64.57633972
_symmetry_Int_Tables_number   1
_chemical_formula_structural   Li2CaEu5ScTiCuNiB2WCO24
_chemical_formula_sum   'Li2 Ca1 Eu5 Sc1 Ti1 Cu1 Ni1 B2 W1 C1 O24'
_cell_volume   282.51523852
_cell_formula_units_Z   1
loop_
 _symmetry_equiv_pos_site_id
 _symmetry_equiv_pos_as_xyz
  1  'x, y, z'
loop_
 _atom_site_type_symbol
 _atom_site_label
 _atom_site_symmetry_multiplicity
 _atom_site_fract_x
 _atom_site_fract_y
 _atom_site_fract_z
 _atom_site_occupancy
  O  O0  1  0.54732955  0.82298589  0.06391725  1
  Eu  Eu1  1  0.54431641  0.51119250  0.98577774  1
  O  O2  1  0.60491586  0.81312394  0.72426367  1
  Eu  Eu3  1  0.47881466  0.09232198  0.45854983  1
  O  O4  1  0.35609290  0.75538009  0.54805541  1
  Eu  Eu5  1  0.93803114  0.92472416  0.72271985  1
  Ca  Ca6  1  0.26933175  0.16395415  0.87761676  1
  O  O7  1  0.05679221  0.73745269  0.98681462  1
  O  O8  1  0.43406552  0.46107262  0.29059041  1
  Cu  Cu9  1  0.72562099  0.96907479  0.09107524  1
  Eu  Eu10  1  0.91654915  0.44310138  0.25023356  1
  O  O11  1  0.90109098  0.13248388  0.10628617  1
  O  O12  1  0.86960918  0.12176018  0.45612761  1
  Ni  Ni13  1  0.71819389  0.52230853  0.60958868  1
  O  O14  1  0.05698003  0.53513372  0.93087155  1
  O  O15  1  0.08036634  0.25852516  0.65591711  1
  O  O16  1  0.84732002  0.69271272  0.39940763  1
  O  O17  1  0.37019387  0.15130652  0.20037074  1
  Eu  Eu18  1  0.19942278  0.82783240  0.31331655  1
  O  O19  1  0.59014988  0.28880933  0.79647052  1
  O  O20  1  0.61781925  0.68742430  0.58339006  1
  Sc  Sc21  1  0.90080070  0.06653482  0.99898529  1
  B  B22  1  0.70692146  0.16585480  0.40183032  1
  Li  Li23  1  0.54583490  0.40509641  0.74462122  1
  O  O24  1  0.98656535  0.72570521  0.07892276  1
  O  O25  1  0.73661542  0.98748469  0.28155470  1
  O  O26  1  0.24496636  0.19334176  0.14499760  1
  C  C27  1  0.36555505  0.37225306  0.18042818  1
  O  O28  1  0.11037679  0.02378217  0.77398425  1
  O  O29  1  0.52896225  0.14168724  0.53890818  1
  O  O30  1  0.21182238  0.58553892  0.81724781  1
  O  O31  1  0.83376616  0.37800461  0.91334707  1
  O  O32  1  0.47923300  0.54888606  0.21103837  1
  Ti  Ti33  1  0.82590652  0.67597491  0.36938652  1
  Li  Li34  1  0.35665956  0.86930102  0.18397470  1
  O  O35  1  0.55495763  0.94162387  0.90182847  1
  O  O36  1  0.85027516  0.37036115  0.37500665  1
  B  B37  1  0.00451863  0.55563754  0.93636870  1
  W  W38  1  0.35950431  0.86281472  0.68402648  1
  O  O39  1  0.14185959  0.78443110  0.45600727  1
