# generated using pymatgen
data_Rb4Gd2UNbIn2CuBi(ClO8)2
_symmetry_space_group_name_H-M   'P 1'
_cell_length_a   6.03713512
_cell_length_b   6.74725485
_cell_length_c   7.45114136
_cell_angle_alpha   93.86289215
_cell_angle_beta   94.77267456
_cell_angle_gamma   90.84903717
_symmetry_Int_Tables_number   1
_chemical_formula_structural   Rb4Gd2UNbIn2CuBi(ClO8)2
_chemical_formula_sum   'Rb4 Gd2 U1 Nb1 In2 Cu1 Bi1 Cl2 O16'
_cell_volume   301.71223286
_cell_formula_units_Z   1
loop_
 _symmetry_equiv_pos_site_id
 _symmetry_equiv_pos_as_xyz
  1  'x, y, z'
loop_
 _atom_site_type_symbol
 _atom_site_label
 _atom_site_symmetry_multiplicity
 _atom_site_fract_x
 _atom_site_fract_y
 _atom_site_fract_z
 _atom_site_occupancy
  Rb  Rb0  1  0.63797736  0.06808060  0.95400596  1
  Cl  Cl1  1  0.14481424  0.92211056  0.12188680  1
  O  O2  1  0.88886380  0.45201293  0.42060512  1
  Rb  Rb3  1  0.14286526  0.87057716  0.62281466  1
  Rb  Rb4  1  0.64601016  0.74037343  0.25875106  1
  Cu  Cu5  1  0.14342380  0.37229767  0.58258754  1
  U  U6  1  0.63543922  0.34940457  0.57243502  1
  O  O7  1  0.39244583  0.27384549  0.73173076  1
  O  O8  1  0.38508648  0.48392549  0.44460332  1
  O  O9  1  0.88768178  0.26299411  0.72887051  1
  O  O10  1  0.63947052  0.09067557  0.44455832  1
  Cl  Cl11  1  0.65096557  0.64988971  0.80005312  1
  Rb  Rb12  1  0.14540689  0.41838020  0.07792705  1
  O  O13  1  0.64945793  0.27480179  0.25889200  1
  Nb  Nb14  1  0.34029490  0.01286491  0.32037055  1
  In  In15  1  0.30115068  0.93516564  0.65179944  1
  In  In16  1  0.04755552  0.42845130  0.33942273  1
  O  O17  1  0.87777239  0.06755286  0.30688208  1
  O  O18  1  0.50558823  0.35106316  0.35523522  1
  O  O19  1  0.68797147  0.59190428  0.88072473  1
  O  O20  1  0.31564021  0.91953719  0.10628209  1
  O  O21  1  0.37933508  0.11810120  0.89109391  1
  Bi  Bi22  1  0.56718737  0.45305654  0.04033633  1
  O  O23  1  0.13344797  0.57727569  0.58253586  1
  Gd  Gd24  1  0.83411556  0.96382391  0.97695351  1
  Gd  Gd25  1  0.60656840  0.51024038  0.63509130  1
  O  O26  1  0.21658146  0.76732445  0.36596197  1
  O  O27  1  0.41652030  0.16554953  0.55862504  1
  O  O28  1  0.77132678  0.87526697  0.71488762  1
  O  O29  1  0.98006237  0.34521240  0.09979139  1
