# generated using pymatgen
data_KRb2Cu2Pd2Se2(SI)2
_symmetry_space_group_name_H-M   'P 1'
_cell_length_a   3.69948792
_cell_length_b   4.42379093
_cell_length_c   7.16332531
_cell_angle_alpha   102.92687988
_cell_angle_beta   101.68113708
_cell_angle_gamma   105.21887970
_symmetry_Int_Tables_number   1
_chemical_formula_structural   KRb2Cu2Pd2Se2(SI)2
_chemical_formula_sum   'K1 Rb2 Cu2 Pd2 Se2 S2 I2'
_cell_volume   105.91774904
_cell_formula_units_Z   1
loop_
 _symmetry_equiv_pos_site_id
 _symmetry_equiv_pos_as_xyz
  1  'x, y, z'
loop_
 _atom_site_type_symbol
 _atom_site_label
 _atom_site_symmetry_multiplicity
 _atom_site_fract_x
 _atom_site_fract_y
 _atom_site_fract_z
 _atom_site_occupancy
  K  K0  1  0.64276862  0.18804914  0.68120372  1
  Cu  Cu1  1  0.40112272  0.44798136  0.18133530  1
  Se  Se2  1  0.00225143  0.53650773  0.38686758  1
  Cu  Cu3  1  0.90383542  0.94778448  0.18669020  1
  Se  Se4  1  0.29278457  0.84002036  0.97461265  1
  S  S5  1  0.39278543  0.78545094  0.23104942  1
  S  S6  1  0.88694936  0.78646606  0.24041587  1
  Pd  Pd7  1  0.02855891  0.02873897  0.21426801  1
  I  I8  1  0.76308924  0.16047890  0.61026049  1
  Rb  Rb9  1  0.38993579  0.77516544  0.73407930  1
  I  I10  1  0.01191765  0.41188791  0.86346483  1
  Rb  Rb11  1  0.38459176  0.29036009  0.24048826  1
  Pd  Pd12  1  0.75122523  0.79636139  0.99620700  1
