# generated using pymatgen
data_NdMg2TcSb
_symmetry_space_group_name_H-M   'P 1'
_cell_length_a   5.11349821
_cell_length_b   5.17182589
_cell_length_c   5.47885895
_cell_angle_alpha   110.12308502
_cell_angle_beta   101.75083160
_cell_angle_gamma   90.57716370
_symmetry_Int_Tables_number   1
_chemical_formula_structural   NdMg2TcSb
_chemical_formula_sum   'Nd2 Mg4 Tc2 Sb2'
_cell_volume   132.69123926
_cell_formula_units_Z   2
loop_
 _symmetry_equiv_pos_site_id
 _symmetry_equiv_pos_as_xyz
  1  'x, y, z'
loop_
 _atom_site_type_symbol
 _atom_site_label
 _atom_site_symmetry_multiplicity
 _atom_site_fract_x
 _atom_site_fract_y
 _atom_site_fract_z
 _atom_site_occupancy
  Nd  Nd0  1  0.40335268  0.06315656  0.46861199  1
  Nd  Nd1  1  0.90142411  0.55813980  0.46788311  1
  Mg  Mg2  1  0.15070747  0.30657300  0.97127450  1
  Mg  Mg3  1  0.65305704  0.80984867  0.97114724  1
  Sb  Sb4  1  0.04955554  0.78703856  0.93856251  1
  Sb  Sb5  1  0.81747526  0.56652862  0.39232346  1
  Tc  Tc6  1  0.93279392  0.17666250  0.66722929  1
  Tc  Tc7  1  0.43563926  0.67788678  0.66694671  1
  Mg  Mg8  1  0.53432572  0.28433365  0.91938174  1
  Mg  Mg9  1  0.31949410  0.08161281  0.41343564  1
