# generated using pymatgen
data_Ba6In2CuBIrPb3S6ClO10F
_symmetry_space_group_name_H-M   'P 1'
_cell_length_a   7.40347958
_cell_length_b   7.31175375
_cell_length_c   8.04937649
_cell_angle_alpha   74.19235229
_cell_angle_beta   70.86108398
_cell_angle_gamma   71.90922546
_symmetry_Int_Tables_number   1
_chemical_formula_structural   Ba6In2CuBIrPb3S6ClO10F
_chemical_formula_sum   'Ba6 In2 Cu1 B1 Ir1 Pb3 S6 Cl1 O10 F1'
_cell_volume   384.17243104
_cell_formula_units_Z   1
loop_
 _symmetry_equiv_pos_site_id
 _symmetry_equiv_pos_as_xyz
  1  'x, y, z'
loop_
 _atom_site_type_symbol
 _atom_site_label
 _atom_site_symmetry_multiplicity
 _atom_site_fract_x
 _atom_site_fract_y
 _atom_site_fract_z
 _atom_site_occupancy
  S  S0  1  0.41162840  0.83834666  0.21764764  1
  In  In1  1  0.62621689  0.44743785  0.80690062  1
  Ir  Ir2  1  0.63501269  0.81721658  0.95377994  1
  Cu  Cu3  1  0.24813442  0.67097276  0.15035203  1
  Cl  Cl4  1  0.43388742  0.43687096  0.59916240  1
  B  B5  1  0.01196823  0.25569794  0.51184940  1
  S  S6  1  0.78582376  0.06367599  0.89904189  1
  O  O7  1  0.91399825  0.20120448  0.41352701  1
  Ba  Ba8  1  0.17846924  0.13762502  0.90648311  1
  Ba  Ba9  1  0.04611760  0.78944033  0.57449138  1
  S  S10  1  0.56384563  0.84029096  0.70864016  1
  S  S11  1  0.82889616  0.51584160  0.96564168  1
  Pb  Pb12  1  0.80959010  0.56194860  0.29866588  1
  O  O13  1  0.18034178  0.13444123  0.54246294  1
  O  O14  1  0.92364901  0.44405058  0.57224083  1
  S  S15  1  0.31170654  0.40926594  0.07275712  1
  F  F16  1  0.95878392  0.84884536  0.25059098  1
  Ba  Ba17  1  0.57637310  0.13641897  0.32194406  1
  O  O18  1  0.02643817  0.00495453  0.58165020  1
  Ba  Ba19  1  0.02884963  0.51064068  0.58269238  1
  O  O20  1  0.52888352  0.75802910  0.73486143  1
  Ba  Ba21  1  0.02299545  0.01153704  0.31584784  1
  O  O22  1  0.51745027  0.25240451  0.43385094  1
  Ba  Ba23  1  0.03165369  0.00029255  0.85553479  1
  O  O24  1  0.52200526  0.76385480  0.43085781  1
  S  S25  1  0.52749753  0.00338821  0.08733257  1
  Pb  Pb26  1  0.52603585  0.51374561  0.26647827  1
  O  O27  1  0.02491052  0.51208144  0.29743570  1
  In  In28  1  0.52999520  0.00714659  0.58582282  1
  O  O29  1  0.03009454  0.49686226  0.86873502  1
  Pb  Pb30  1  0.53223962  0.50167197  0.90076458  1
  O  O31  1  0.52305925  0.24844944  0.73355174  1
