# generated using pymatgen
data_Li2Ca4Eu2Ti4Al2Tl2Ga2Co2CuAg5SnHg4Sb5Ru4
_symmetry_space_group_name_H-M   'P 1'
_cell_length_a   4.53447056
_cell_length_b   6.23771715
_cell_length_c   6.96270227
_cell_angle_alpha   84.41940308
_cell_angle_beta   78.29293823
_cell_angle_gamma   77.43684387
_symmetry_Int_Tables_number   1
_chemical_formula_structural
Li2Ca4Eu2Ti4Al2Tl2Ga2Co2CuAg5SnHg4Sb5Ru4
_chemical_formula_sum
'Li2 Ca4 Eu2 Ti4 Al2 Tl2 Ga2 Co2 Cu1 Ag5 Sn1 Hg4 Sb5 Ru4'
_cell_volume   187.93343918
_cell_formula_units_Z   1
loop_
 _symmetry_equiv_pos_site_id
 _symmetry_equiv_pos_as_xyz
  1  'x, y, z'
loop_
 _atom_site_type_symbol
 _atom_site_label
 _atom_site_symmetry_multiplicity
 _atom_site_fract_x
 _atom_site_fract_y
 _atom_site_fract_z
 _atom_site_occupancy
  Ag  Ag0  1  0.36725697  0.87582690  0.75716883  1
  Al  Al1  1  0.75069672  0.07348660  0.90974128  1
  Ca  Ca2  1  0.04378392  0.50981724  0.96604204  1
  Ag  Ag3  1  0.31136760  0.97213441  0.15300435  1
  Ag  Ag4  1  0.65612727  0.29771817  0.25646091  1
  Ag  Ag5  1  0.58307403  0.41794589  0.64021522  1
  Ca  Ca6  1  0.91240907  0.77720553  0.43777612  1
  Al  Al7  1  0.19862923  0.20303440  0.49026302  1
  Sb  Sb8  1  0.14903422  0.67695624  0.55696082  1
  Li  Li9  1  0.67730647  0.18710610  0.60452521  1
  Li  Li10  1  0.45644638  0.61087561  0.15605250  1
  Sb  Sb11  1  0.96758407  0.11790314  0.19393919  1
  Ti  Ti12  1  0.65575635  0.47283667  0.45235479  1
  Ti  Ti13  1  0.65899390  0.48330393  0.95820218  1
  Ga  Ga14  1  0.31691200  0.81362587  0.12770073  1
  Ti  Ti15  1  0.31599513  0.80045205  0.62442917  1
  Ru  Ru16  1  0.98359597  0.14336488  0.53417701  1
  Ru  Ru17  1  0.64936805  0.47217515  0.70389968  1
  Ti  Ti18  1  0.99374378  0.14538665  0.28615868  1
  Ga  Ga19  1  0.99014693  0.14450023  0.79065233  1
  Ru  Ru20  1  0.98112404  0.13587101  0.04287165  1
  Co  Co21  1  0.66009486  0.47762051  0.20831320  1
  Co  Co22  1  0.31741443  0.80920112  0.37094921  1
  Ru  Ru23  1  0.31358489  0.80370903  0.87525445  1
  Sn  Sn24  1  0.12203506  0.77379107  0.38296920  1
  Cu  Cu25  1  0.88860250  0.00495943  0.80012071  1
  Sb  Sb26  1  0.14432025  0.21162289  0.21365747  1
  Ca  Ca27  1  0.63768214  0.00871360  0.30228922  1
  Sb  Sb28  1  0.64335763  0.59249932  0.58263195  1
  Sb  Sb29  1  0.65581727  0.41735330  0.99744785  1
  Ag  Ag30  1  0.39039242  0.01109278  0.80825901  1
  Ca  Ca31  1  0.13734004  0.50177681  0.79811776  1
  Eu  Eu32  1  0.47199747  0.07132259  0.70145869  1
  Tl  Tl33  1  0.97045273  0.90361285  0.87877762  1
  Hg  Hg34  1  0.45556083  0.05158979  0.19728640  1
  Hg  Hg35  1  0.46454605  0.57241148  0.71761632  1
  Eu  Eu36  1  0.95907986  0.39266002  0.37305203  1
  Hg  Hg37  1  0.97294790  0.41276994  0.87988096  1
  Hg  Hg38  1  0.96209991  0.89066380  0.36264777  1
  Tl  Tl39  1  0.45844418  0.56885016  0.20079544  1
