# generated using pymatgen
data_Na2LiLa7Ti2Nb3ZnCu3(SbS)10
_symmetry_space_group_name_H-M   'P 1'
_cell_length_a   7.22622061
_cell_length_b   9.02578354
_cell_length_c   9.15659237
_cell_angle_alpha   85.37207794
_cell_angle_beta   81.23188019
_cell_angle_gamma   84.90275574
_symmetry_Int_Tables_number   1
_chemical_formula_structural   Na2LiLa7Ti2Nb3ZnCu3(SbS)10
_chemical_formula_sum   'Na2 Li1 La7 Ti2 Nb3 Zn1 Cu3 Sb10 S10'
_cell_volume   586.53140866
_cell_formula_units_Z   1
loop_
 _symmetry_equiv_pos_site_id
 _symmetry_equiv_pos_as_xyz
  1  'x, y, z'
loop_
 _atom_site_type_symbol
 _atom_site_label
 _atom_site_symmetry_multiplicity
 _atom_site_fract_x
 _atom_site_fract_y
 _atom_site_fract_z
 _atom_site_occupancy
  Sb  Sb0  1  0.02489343  0.07143114  0.91696918  1
  Sb  Sb1  1  0.98618311  0.81632483  0.37763092  1
  Sb  Sb2  1  0.99039572  0.28455713  0.63956231  1
  Cu  Cu3  1  0.72228438  0.96180236  0.54032373  1
  La  La4  1  0.30538100  0.45153329  0.41558886  1
  La  La5  1  0.82469153  0.76133037  0.04633252  1
  Sb  Sb6  1  0.54003596  0.75083220  0.36816901  1
  La  La7  1  0.37124068  0.26688758  0.90964240  1
  Sb  Sb8  1  0.37138155  0.10412671  0.24287453  1
  La  La9  1  0.85311896  0.16012728  0.24208370  1
  La  La10  1  0.30626893  0.77779949  0.07296047  1
  Cu  Cu11  1  0.96098918  0.40152186  0.91372973  1
  Sb  Sb12  1  0.56647903  0.92005193  0.80293107  1
  Sb  Sb13  1  0.62652326  0.25627017  0.55973351  1
  Cu  Cu14  1  0.71999717  0.48687488  0.31945732  1
  La  La15  1  0.72430456  0.60480577  0.65838611  1
  Sb  Sb16  1  0.06179389  0.47026971  0.16330728  1
  Sb  Sb17  1  0.18375435  0.60917288  0.76030976  1
  La  La18  1  0.23732933  0.95484388  0.58589619  1
  Sb  Sb19  1  0.61848634  0.46507156  0.04235904  1
  S  S20  1  0.57782829  0.21106105  0.10078519  1
  S  S21  1  0.10016283  0.22645339  0.31621879  1
  Ti  Ti22  1  0.46545076  0.96047449  0.79525220  1
  Nb  Nb23  1  0.20317295  0.44680542  0.20613396  1
  S  S24  1  0.64267111  0.30712131  0.85431570  1
  Li  Li25  1  0.20065598  0.64889717  0.89995158  1
  S  S26  1  0.27640358  0.62272125  0.72502977  1
  S  S27  1  0.56966347  0.31730598  0.53739136  1
  S  S28  1  0.81945890  0.68236578  0.28213993  1
  Na  Na29  1  0.93582952  0.90048867  0.12055910  1
  S  S30  1  0.88881660  0.91503924  0.91053867  1
  Zn  Zn31  1  0.01367056  0.29728585  0.64342898  1
  Nb  Nb32  1  0.79971480  0.67005682  0.61159122  1
  Nb  Nb33  1  0.10934149  0.26432744  0.97237456  1
  S  S34  1  0.27695262  0.60007280  0.06453059  1
  S  S35  1  0.33202827  0.68934917  0.48679453  1
  Na  Na36  1  0.49592900  0.98078674  0.39147118  1
  Ti  Ti37  1  0.70637834  0.45831734  0.38606009  1
  S  S38  1  0.04838501  0.01108601  0.67895091  1
