# generated using pymatgen
data_K2Rb3Na3LiEuSiClO4F9
_symmetry_space_group_name_H-M   'P 1'
_cell_length_a   5.12410212
_cell_length_b   5.80645323
_cell_length_c   8.16104698
_cell_angle_alpha   67.10710144
_cell_angle_beta   72.76457214
_cell_angle_gamma   62.73680115
_symmetry_Int_Tables_number   1
_chemical_formula_structural   K2Rb3Na3LiEuSiClO4F9
_chemical_formula_sum   'Rb3 K2 Na3 Li1 Eu1 Si1 Cl1 O4 F9'
_cell_volume   196.76088010
_cell_formula_units_Z   1
loop_
 _symmetry_equiv_pos_site_id
 _symmetry_equiv_pos_as_xyz
  1  'x, y, z'
loop_
 _atom_site_type_symbol
 _atom_site_label
 _atom_site_symmetry_multiplicity
 _atom_site_fract_x
 _atom_site_fract_y
 _atom_site_fract_z
 _atom_site_occupancy
  Rb  Rb0  1  0.18123177  0.49263611  0.33212110  1
  Rb  Rb1  1  0.60103416  0.97285068  0.00957203  1
  Si  Si2  1  0.35263038  0.80119520  0.68395770  1
  O  O3  1  0.33713642  0.60951120  0.90853465  1
  Cl  Cl4  1  0.89653832  0.18100144  0.22143166  1
  O  O5  1  0.50408632  0.00291942  0.64985526  1
  O  O6  1  0.03068685  0.00583317  0.64985335  1
  Rb  Rb7  1  0.97370279  0.44556648  0.78813982  1
  O  O8  1  0.53098750  0.58779842  0.54328424  1
  Li  Li9  1  0.73269624  0.19172949  0.54033482  1
  F  F10  1  0.03354846  0.86038148  0.00314767  1
  F  F11  1  0.64721745  0.23807265  0.32313797  1
  K  K12  1  0.65250582  0.80849648  0.30485728  1
  F  F13  1  0.45055711  0.55014801  0.67188025  1
  F  F14  1  0.93470341  0.82434571  0.53557509  1
  F  F15  1  0.42557311  0.09888757  0.01036263  1
  F  F16  1  0.03446638  0.39479193  0.35525778  1
  F  F17  1  0.94929737  0.50084639  0.82876104  1
  Na  Na18  1  0.52327162  0.80186719  0.82089543  1
  Na  Na19  1  0.21194975  0.48321342  0.00656858  1
  F  F20  1  0.38418877  0.64976597  0.18692887  1
  K  K21  1  0.82716072  0.17786244  0.76686049  1
  F  F22  1  0.31916901  0.09483156  0.61706400  1
  Na  Na23  1  0.06226224  0.04855789  0.23919234  1
  Eu  Eu24  1  0.24996677  0.46113539  0.50404471  1
