# generated using pymatgen
data_La2LuScCr2NiGeBiSb2Pt(S4O5)2
_symmetry_space_group_name_H-M   'P 1'
_cell_length_a   6.39971733
_cell_length_b   6.52273321
_cell_length_c   7.16168261
_cell_angle_alpha   114.10134125
_cell_angle_beta   113.85439301
_cell_angle_gamma   92.49372864
_symmetry_Int_Tables_number   1
_chemical_formula_structural   La2LuScCr2NiGeBiSb2Pt(S4O5)2
_chemical_formula_sum   'La2 Lu1 Sc1 Cr2 Ni1 Ge1 Bi1 Sb2 Pt1 S8 O10'
_cell_volume   241.66095557
_cell_formula_units_Z   1
loop_
 _symmetry_equiv_pos_site_id
 _symmetry_equiv_pos_as_xyz
  1  'x, y, z'
loop_
 _atom_site_type_symbol
 _atom_site_label
 _atom_site_symmetry_multiplicity
 _atom_site_fract_x
 _atom_site_fract_y
 _atom_site_fract_z
 _atom_site_occupancy
  Cr  Cr0  1  0.59648871  0.56478620  0.05100366  1
  S  S1  1  0.09845774  0.18823610  0.30478141  1
  S  S2  1  0.60169983  0.69468987  0.81187785  1
  Sc  Sc3  1  0.59553009  0.06688470  0.06891868  1
  S  S4  1  0.11029490  0.42497474  0.82062942  1
  Cr  Cr5  1  0.58693844  0.82468522  0.56545109  1
  Pt  Pt6  1  0.09883510  0.06613139  0.55031747  1
  S  S7  1  0.08118352  0.96568894  0.80887341  1
  S  S8  1  0.59748036  0.92008805  0.30890292  1
  S  S9  1  0.57331783  0.46235251  0.30312592  1
  S  S10  1  0.60343373  0.19406229  0.81420100  1
  Ni  Ni11  1  0.09953901  0.31995937  0.06800374  1
  Lu  Lu12  1  0.08897608  0.56741709  0.56118083  1
  S  S13  1  0.09829675  0.69286621  0.30249909  1
  O  O14  1  0.30007622  0.05939557  0.84698808  1
  Sb  Sb15  1  0.45962614  0.43765411  0.72235984  1
  Sb  Sb16  1  0.58343083  0.63963515  0.33562654  1
  O  O17  1  0.80178821  0.67716646  0.96999371  1
  Ge  Ge18  1  0.44564518  0.97382867  0.01290080  1
  O  O19  1  0.88062549  0.66899127  0.54731739  1
  O  O20  1  0.31469578  0.63895154  0.77378714  1
  La  La21  1  0.14633897  0.77428228  0.37457794  1
  Bi  Bi22  1  0.95051944  0.37397781  0.66302389  1
  O  O23  1  0.09466443  0.42409748  0.02914318  1
  O  O24  1  0.40925103  0.41850439  0.40424007  1
  O  O25  1  0.11701862  0.16531739  0.49567878  1
  O  O26  1  0.30833709  0.94532758  0.18798608  1
  La  La27  1  0.00227107  0.04948802  0.00973834  1
  O  O28  1  0.74793893  0.14260359  0.17787802  1
  O  O29  1  0.60920686  0.90859812  0.60551679  1
