# generated using pymatgen
data_SmYThGaFeCo(S2O3)2
_symmetry_space_group_name_H-M   'P 1'
_cell_length_a   4.85789776
_cell_length_b   4.80154848
_cell_length_c   7.02883720
_cell_angle_alpha   88.41634369
_cell_angle_beta   90.61971283
_cell_angle_gamma   93.02513885
_symmetry_Int_Tables_number   1
_chemical_formula_structural   SmYThGaFeCo(S2O3)2
_chemical_formula_sum   'Sm1 Y1 Th1 Ga1 Fe1 Co1 S4 O6'
_cell_volume   163.65246613
_cell_formula_units_Z   1
loop_
 _symmetry_equiv_pos_site_id
 _symmetry_equiv_pos_as_xyz
  1  'x, y, z'
loop_
 _atom_site_type_symbol
 _atom_site_label
 _atom_site_symmetry_multiplicity
 _atom_site_fract_x
 _atom_site_fract_y
 _atom_site_fract_z
 _atom_site_occupancy
  S  S0  1  0.99592757  0.66154599  0.15384224  1
  Sm  Sm1  1  0.99401391  0.15892507  0.40524223  1
  S  S2  1  0.50211042  0.16368714  0.15420268  1
  S  S3  1  0.50194138  0.16443792  0.65226293  1
  S  S4  1  0.99599075  0.65564740  0.65315133  1
  Th  Th5  1  0.49746084  0.66545296  0.90498221  1
  O  O6  1  0.92820185  0.22778191  0.64615542  1
  O  O7  1  0.46883622  0.37210408  0.06203669  1
  O  O8  1  0.01258129  0.41708741  0.20269415  1
  O  O9  1  0.50976777  0.93564165  0.21210784  1
  O  O10  1  0.99811566  0.88952416  0.06227905  1
  O  O11  1  0.35674763  0.79691035  0.65283358  1
  Co  Co12  1  0.79051560  0.19220713  0.29034418  1
  Ga  Ga13  1  0.28619158  0.69478458  0.29068005  1
  Y  Y14  1  0.68957531  0.57944345  0.89660048  1
  Fe  Fe15  1  0.20159811  0.09413814  0.93400967  1
