# generated using pymatgen
data_K2NaSr2LiLaDyInCu2PtS12
_symmetry_space_group_name_H-M   'P 1'
_cell_length_a   4.60600471
_cell_length_b   5.58917475
_cell_length_c   6.31607485
_cell_angle_alpha   112.21133423
_cell_angle_beta   96.31713104
_cell_angle_gamma   90.31505585
_symmetry_Int_Tables_number   1
_chemical_formula_structural   K2NaSr2LiLaDyInCu2PtS12
_chemical_formula_sum   'K2 Na1 Sr2 Li1 La1 Dy1 In1 Cu2 Pt1 S12'
_cell_volume   149.42388058
_cell_formula_units_Z   1
loop_
 _symmetry_equiv_pos_site_id
 _symmetry_equiv_pos_as_xyz
  1  'x, y, z'
loop_
 _atom_site_type_symbol
 _atom_site_label
 _atom_site_symmetry_multiplicity
 _atom_site_fract_x
 _atom_site_fract_y
 _atom_site_fract_z
 _atom_site_occupancy
  Dy  Dy0  1  0.78128195  0.37532908  0.94619071  1
  S  S1  1  0.76989245  0.89912188  0.98613226  1
  S  S2  1  0.35120177  0.52868599  0.23977973  1
  Li  Li3  1  0.33911043  0.02876526  0.24329415  1
  Na  Na4  1  0.18022890  0.73714590  0.65298212  1
  S  S5  1  0.21899597  0.24121974  0.64984208  1
  K  K6  1  0.66815251  0.15163121  0.57124549  1
  S  S7  1  0.64795572  0.65539992  0.00446877  1
  In  In8  1  0.94791758  0.62183541  0.64425051  1
  La  La9  1  0.59977734  0.00452413  0.06511518  1
  S  S10  1  0.39114270  0.41567987  0.94962668  1
  Cu  Cu11  1  0.23377843  0.22358122  0.52933246  1
  Pt  Pt12  1  0.54393268  0.42858079  0.11927301  1
  K  K13  1  0.46568120  0.70271999  0.59970045  1
  S  S14  1  0.98595542  0.85075057  0.80171680  1
  S  S15  1  0.89587027  0.35909510  0.58747590  1
  S  S16  1  0.29848894  0.07578828  0.82234871  1
  S  S17  1  0.82422519  0.77591109  0.34813058  1
  Cu  Cu18  1  0.99609423  0.12207369  0.80952096  1
  S  S19  1  0.32012278  0.48171189  0.42672276  1
  Sr  Sr20  1  0.17499928  0.81311095  0.12111616  1
  S  S21  1  0.27065560  0.03781877  0.32510614  1
  S  S22  1  0.82247335  0.18239498  0.11690196  1
  Sr  Sr23  1  0.02048567  0.39899579  0.14410153  1
