# generated using pymatgen
data_BaCa2Ce4EuYThUTi3Al2ZnSi2P4O33F7
_symmetry_space_group_name_H-M   'P 1'
_cell_length_a   4.49266720
_cell_length_b   7.58594275
_cell_length_c   7.73077059
_cell_angle_alpha   112.31594086
_cell_angle_beta   90.32151031
_cell_angle_gamma   103.39410400
_symmetry_Int_Tables_number   1
_chemical_formula_structural   BaCa2Ce4EuYThUTi3Al2ZnSi2P4O33F7
_chemical_formula_sum
'Ba1 Ca2 Ce4 Eu1 Y1 Th1 U1 Ti3 Al2 Zn1 Si2 P4 O33 F7'
_cell_volume   235.82526682
_cell_formula_units_Z   1
loop_
 _symmetry_equiv_pos_site_id
 _symmetry_equiv_pos_as_xyz
  1  'x, y, z'
loop_
 _atom_site_type_symbol
 _atom_site_label
 _atom_site_symmetry_multiplicity
 _atom_site_fract_x
 _atom_site_fract_y
 _atom_site_fract_z
 _atom_site_occupancy
  Ca  Ca0  1  0.14363945  0.71168739  0.70128131  1
  F  F1  1  0.60570675  0.54044032  0.62774795  1
  O  O2  1  0.64413935  0.95213580  0.78226364  1
  O  O3  1  0.82320285  0.21592894  0.66431063  1
  Ce  Ce4  1  0.37767816  0.30991280  0.76009852  1
  F  F5  1  0.26925248  0.61519343  0.92699683  1
  O  O6  1  0.13369581  0.22588833  0.01683018  1
  O  O7  1  0.65991509  0.82805622  0.39539662  1
  O  O8  1  0.13342595  0.96591431  0.60351998  1
  F  F9  1  0.26765656  0.19669381  0.41766882  1
  Ce  Ce10  1  0.18825613  0.82501990  0.24673468  1
  O  O11  1  0.97633010  0.88019115  0.99782956  1
  P  P12  1  0.80525017  0.98850799  0.60205674  1
  F  F13  1  0.72166383  0.51362497  0.06038052  1
  F  F14  1  0.09268829  0.56053668  0.37865561  1
  O  O15  1  0.62287372  0.07577609  0.14840850  1
  Ca  Ca16  1  0.51354825  0.40353337  0.28616890  1
  P  P17  1  0.85201341  0.03944463  0.00454038  1
  O  O18  1  0.33612314  0.44606352  0.62243778  1
  O  O19  1  0.83601934  0.93919092  0.62068379  1
  O  O20  1  0.83975905  0.43627551  0.12786561  1
  Ti  Ti21  1  0.83427507  0.94594491  0.11938530  1
  Zn  Zn22  1  0.33359429  0.94560236  0.62557077  1
  O  O23  1  0.33422345  0.94621044  0.12407552  1
  Ti  Ti24  1  0.84011823  0.45098633  0.62116885  1
  Ti  Ti25  1  0.33663285  0.44347346  0.12469309  1
  U  U26  1  0.68873215  0.89917338  0.31914029  1
  O  O27  1  0.48819309  0.10189872  0.19105977  1
  O  O28  1  0.89453089  0.68055010  0.43188649  1
  P  P29  1  0.00023305  0.19689184  0.74316245  1
  O  O30  1  0.00831676  0.56501234  0.18090320  1
  Eu  Eu31  1  0.16483903  0.78349435  0.00798412  1
  O  O32  1  0.36801293  0.75534737  0.42828494  1
  O  O33  1  0.29804099  0.28099748  0.77619684  1
  Th  Th34  1  0.64192486  0.26149899  0.00041234  1
  Ba  Ba35  1  0.59374028  0.54118919  0.62736827  1
  F  F36  1  0.43201050  0.84352088  0.84368140  1
  O  O37  1  0.50441229  0.60478318  0.11163691  1
  O  O38  1  0.89619267  0.40948415  0.84446996  1
  F  F39  1  0.91826081  0.02951312  0.13835031  1
  O  O40  1  0.93029064  0.97044772  0.80589306  1
  O  O41  1  0.84886348  0.16905099  0.55717671  1
  P  P42  1  0.09445412  0.65486759  0.34913963  1
  O  O43  1  0.33242306  0.36315027  0.46543160  1
  O  O44  1  0.70379442  0.72409189  0.97597921  1
  Ce  Ce45  1  0.66373628  0.79064339  0.62306678  1
  O  O46  1  0.10651467  0.62202996  0.78321743  1
  Si  Si47  1  0.91117209  0.55025375  0.12064449  1
  O  O48  1  0.23437041  0.75927418  0.27078599  1
  Ce  Ce49  1  0.41363141  0.05221513  0.12560079  1
  Si  Si50  1  0.16567990  0.29822037  0.62618160  1
  O  O51  1  0.38280246  0.11619683  0.77028203  1
  O  O52  1  0.73748833  0.47855619  0.27710190  1
  O  O53  1  0.83066976  0.08331781  0.47146890  1
  O  O54  1  0.97804797  0.23136711  0.97251928  1
  O  O55  1  0.37844831  0.31151149  0.41628474  1
  Y  Y56  1  0.38375053  0.81308842  0.22086114  1
  O  O57  1  0.88240236  0.80550051  0.41477200  1
  O  O58  1  0.88467193  0.31171116  0.72540331  1
  O  O59  1  0.37298340  0.31482473  0.03158419  1
  Al  Al60  1  0.87908942  0.30949354  0.50549310  1
  Al  Al61  1  0.88017792  0.30406517  0.94636691  1
  O  O62  1  0.88096988  0.81032878  0.03284436  1
