# generated using pymatgen
data_BaCaLaY2Sb2Te6(PPt)3
_symmetry_space_group_name_H-M   'P 1'
_cell_length_a   3.94755220
_cell_length_b   6.65693092
_cell_length_c   7.33393335
_cell_angle_alpha   116.00383759
_cell_angle_beta   90.67239380
_cell_angle_gamma   92.61932373
_symmetry_Int_Tables_number   1
_chemical_formula_structural   BaCaLaY2Sb2Te6(PPt)3
_chemical_formula_sum   'Ba1 Ca1 La1 Y2 Sb2 Te6 P3 Pt3'
_cell_volume   172.92541028
_cell_formula_units_Z   1
loop_
 _symmetry_equiv_pos_site_id
 _symmetry_equiv_pos_as_xyz
  1  'x, y, z'
loop_
 _atom_site_type_symbol
 _atom_site_label
 _atom_site_symmetry_multiplicity
 _atom_site_fract_x
 _atom_site_fract_y
 _atom_site_fract_z
 _atom_site_occupancy
  P  P0  1  0.71176797  0.53314388  0.97647363  1
  Pt  Pt1  1  0.71554655  0.19761179  0.97657037  1
  Y  Y2  1  0.21181628  0.86289144  0.97221911  1
  P  P3  1  0.70991254  0.19329746  0.30411392  1
  Y  Y4  1  0.20971034  0.52879232  0.30906430  1
  Pt  Pt5  1  0.71267045  0.85987335  0.30383313  1
  Pt  Pt6  1  0.71185267  0.53066164  0.64283252  1
  P  P7  1  0.70827633  0.86194354  0.64103818  1
  Ca  Ca8  1  0.21639465  0.19312000  0.63987666  1
  La  La9  1  0.23484972  0.66724873  0.69105059  1
  Te  Te10  1  0.17749386  0.10861348  0.57781518  1
  Sb  Sb11  1  0.65864414  0.10050692  0.54243767  1
  Te  Te12  1  0.61212283  0.54570109  0.45852327  1
  Te  Te13  1  0.82130414  0.50219309  0.86915141  1
  Te  Te14  1  0.46736020  0.89963943  0.16221184  1
  Te  Te15  1  0.82665783  0.99943876  0.86999393  1
  Sb  Sb16  1  0.98910767  0.92431885  0.19999331  1
  Te  Te17  1  0.03276444  0.45360762  0.28457645  1
  Ba  Ba18  1  0.40324488  0.33933157  0.04026902  1
