# generated using pymatgen
data_Pm2YMgGaCo4
_symmetry_space_group_name_H-M   'P 1'
_cell_length_a   5.12358665
_cell_length_b   5.13067007
_cell_length_c   5.11414766
_cell_angle_alpha   60.36941147
_cell_angle_beta   60.38941956
_cell_angle_gamma   59.95527649
_symmetry_Int_Tables_number   1
_chemical_formula_structural   Pm2YMgGaCo4
_chemical_formula_sum   'Pm2 Y1 Mg1 Ga1 Co4'
_cell_volume   95.57068720
_cell_formula_units_Z   1
loop_
 _symmetry_equiv_pos_site_id
 _symmetry_equiv_pos_as_xyz
  1  'x, y, z'
loop_
 _atom_site_type_symbol
 _atom_site_label
 _atom_site_symmetry_multiplicity
 _atom_site_fract_x
 _atom_site_fract_y
 _atom_site_fract_z
 _atom_site_occupancy
  Pm  Pm0  1  0.88427663  0.15816313  0.52842373  1
  Pm  Pm1  1  0.38200986  0.65487796  0.03117156  1
  Mg  Mg2  1  0.63444936  0.90613657  0.27648443  1
  Ga  Ga3  1  0.13507593  0.40624198  0.77702910  1
  Y  Y4  1  0.32842800  0.72310853  0.49255690  1
  Co  Co5  1  0.33330455  0.22728285  0.98066390  1
  Co  Co6  1  0.83539081  0.71847528  0.98338562  1
  Co  Co7  1  0.83702767  0.22284575  0.24541591  1
  Co  Co8  1  0.82628900  0.22301103  0.71821374  1
