# generated using pymatgen
data_Sr4VCu6Ni3Cl4(O5F)2
_symmetry_space_group_name_H-M   'P 1'
_cell_length_a   5.94847202
_cell_length_b   6.80033159
_cell_length_c   7.51579475
_cell_angle_alpha   110.87286377
_cell_angle_beta   97.42347717
_cell_angle_gamma   89.92451477
_symmetry_Int_Tables_number   1
_chemical_formula_structural   Sr4VCu6Ni3Cl4(O5F)2
_chemical_formula_sum   'Sr4 V1 Cu6 Ni3 Cl4 O10 F2'
_cell_volume   281.36431895
_cell_formula_units_Z   1
loop_
 _symmetry_equiv_pos_site_id
 _symmetry_equiv_pos_as_xyz
  1  'x, y, z'
loop_
 _atom_site_type_symbol
 _atom_site_label
 _atom_site_symmetry_multiplicity
 _atom_site_fract_x
 _atom_site_fract_y
 _atom_site_fract_z
 _atom_site_occupancy
  Cu  Cu0  1  0.40012032  0.24213913  0.25707087  1
  O  O1  1  0.64848781  0.05679768  0.70854688  1
  Sr  Sr2  1  0.90575755  0.25763726  0.51006615  1
  Cl  Cl3  1  0.39474177  0.47431239  0.56553358  1
  Sr  Sr4  1  0.39143193  0.86038905  0.40770721  1
  Sr  Sr5  1  0.90079731  0.24963515  0.00649093  1
  Cu  Cu6  1  0.89596862  0.86363268  0.65479547  1
  Cu  Cu7  1  0.40500611  0.24498016  0.75767326  1
  Cl  Cl8  1  0.39949241  0.47248566  0.05982375  1
  Sr  Sr9  1  0.39887163  0.86076289  0.90969372  1
  Cl  Cl10  1  0.90208286  0.63553059  0.85054791  1
  Cu  Cu11  1  0.89652103  0.85960513  0.15707490  1
  Cl  Cl12  1  0.90100145  0.63725877  0.35090920  1
  O  O13  1  0.15106022  0.05493594  0.71189392  1
  O  O14  1  0.65245318  0.05316223  0.20608678  1
  O  O15  1  0.14955518  0.05282609  0.20563252  1
  Ni  Ni16  1  0.41032824  0.25558212  0.93036890  1
  Ni  Ni17  1  0.41259170  0.75019932  0.43236756  1
  O  O18  1  0.16389672  0.52483326  0.70099717  1
  Cu  Cu19  1  0.75147825  0.14144853  0.31957006  1
  Cu  Cu20  1  0.07895630  0.36822081  0.53994387  1
  O  O21  1  0.15964724  0.97214347  0.69862950  1
  O  O22  1  0.16621105  0.52435654  0.14301771  1
  O  O23  1  0.66122991  0.53496653  0.16734266  1
  F  F24  1  0.64340925  0.51049775  0.68518716  1
  V  V25  1  0.91273332  0.75536680  0.92979628  1
  F  F26  1  0.18264522  0.99582469  0.17755497  1
  O  O27  1  0.66246510  0.98352569  0.71963376  1
  Ni  Ni28  1  0.41110045  0.75454885  0.93078488  1
  O  O29  1  0.67107880  0.98386174  0.15896314  1
