# generated using pymatgen
data_InSnPd3Au3S4
_symmetry_space_group_name_H-M   'P 1'
_cell_length_a   4.23304796
_cell_length_b   4.24028587
_cell_length_c   4.61454773
_cell_angle_alpha   89.83979797
_cell_angle_beta   90.90605164
_cell_angle_gamma   89.14683533
_symmetry_Int_Tables_number   1
_chemical_formula_structural   InSnPd3Au3S4
_chemical_formula_sum   'In1 Sn1 Pd3 Au3 S4'
_cell_volume   82.80813785
_cell_formula_units_Z   1
loop_
 _symmetry_equiv_pos_site_id
 _symmetry_equiv_pos_as_xyz
  1  'x, y, z'
loop_
 _atom_site_type_symbol
 _atom_site_label
 _atom_site_symmetry_multiplicity
 _atom_site_fract_x
 _atom_site_fract_y
 _atom_site_fract_z
 _atom_site_occupancy
  Pd  Pd0  1  0.12150662  0.31864059  0.70582962  1
  Pd  Pd1  1  0.62287092  0.30758971  0.21010348  1
  In  In2  1  0.61965013  0.82018024  0.71381336  1
  Pd  Pd3  1  0.12720582  0.80955428  0.20951122  1
  S  S4  1  0.40308490  0.23577720  0.36219192  1
  Sn  Sn5  1  0.40215427  0.73913574  0.35568625  1
  Au  Au6  1  0.39669132  0.24295564  0.85778356  1
  S  S7  1  0.90319467  0.23653476  0.85982049  1
  Au  Au8  1  0.90516073  0.73572308  0.86002302  1
  Au  Au9  1  0.90213484  0.23661038  0.35648406  1
  S  S10  1  0.90316784  0.73720831  0.35320804  1
  S  S11  1  0.40706113  0.73362368  0.85412574  1
