# generated using pymatgen
data_PrMgGaNi2Sn5Sb4
_symmetry_space_group_name_H-M   'P 1'
_cell_length_a   6.26166725
_cell_length_b   6.84969854
_cell_length_c   6.78819084
_cell_angle_alpha   111.33027649
_cell_angle_beta   90.28749084
_cell_angle_gamma   90.24697113
_symmetry_Int_Tables_number   1
_chemical_formula_structural   PrMgGaNi2Sn5Sb4
_chemical_formula_sum   'Pr1 Mg1 Ga1 Ni2 Sn5 Sb4'
_cell_volume   271.19586286
_cell_formula_units_Z   1
loop_
 _symmetry_equiv_pos_site_id
 _symmetry_equiv_pos_as_xyz
  1  'x, y, z'
loop_
 _atom_site_type_symbol
 _atom_site_label
 _atom_site_symmetry_multiplicity
 _atom_site_fract_x
 _atom_site_fract_y
 _atom_site_fract_z
 _atom_site_occupancy
  Sb  Sb0  1  0.10152978  0.61976027  0.90722048  1
  Sb  Sb1  1  0.60891879  0.12207930  0.65448272  1
  Sn  Sn2  1  0.10889546  0.62520385  0.41006422  1
  Sn  Sn3  1  0.60432315  0.12199103  0.15666875  1
  Sn  Sn4  1  0.60813177  0.62434995  0.91240239  1
  Sb  Sb5  1  0.60595357  0.62298065  0.40838504  1
  Sb  Sb6  1  0.10591532  0.11936749  0.15628029  1
  Sn  Sn7  1  0.10840547  0.12353678  0.65950716  1
  Pr  Pr8  1  0.47581679  0.80240840  0.49891061  1
  Sn  Sn9  1  0.97599143  0.29797211  0.48743373  1
  Mg  Mg10  1  0.97288525  0.81406224  0.00416057  1
  Ni  Ni11  1  0.97572851  0.31017190  0.99126160  1
  Ni  Ni12  1  0.47843033  0.16974849  0.16078612  1
  Ga  Ga13  1  0.47376588  0.43102756  0.86348754  1
