# generated using pymatgen
data_SmErThTi4V2Ni4Hg2As3P4W2N
_symmetry_space_group_name_H-M   'P 1'
_cell_length_a   4.79334021
_cell_length_b   5.96252346
_cell_length_c   7.81169605
_cell_angle_alpha   102.60404968
_cell_angle_beta   106.93315125
_cell_angle_gamma   88.22901154
_symmetry_Int_Tables_number   1
_chemical_formula_structural   SmErThTi4V2Ni4Hg2As3P4W2N
_chemical_formula_sum   'Sm1 Er1 Th1 Ti4 V2 Ni4 Hg2 As3 P4 W2 N1'
_cell_volume   208.30742470
_cell_formula_units_Z   1
loop_
 _symmetry_equiv_pos_site_id
 _symmetry_equiv_pos_as_xyz
  1  'x, y, z'
loop_
 _atom_site_type_symbol
 _atom_site_label
 _atom_site_symmetry_multiplicity
 _atom_site_fract_x
 _atom_site_fract_y
 _atom_site_fract_z
 _atom_site_occupancy
  As  As0  1  0.70640689  0.82684612  0.68968964  1
  Th  Th1  1  0.91659713  0.16777687  0.08758674  1
  As  As2  1  0.54915309  0.20133190  0.36328459  1
  As  As3  1  0.31260711  0.32707706  0.88294202  1
  Hg  Hg4  1  0.83574069  0.60244900  0.93491483  1
  Hg  Hg5  1  0.12757950  0.01787247  0.53113574  1
  Er  Er6  1  0.15254016  0.51725066  0.57289588  1
  Sm  Sm7  1  0.50264072  0.66703081  0.26800773  1
  N  N8  1  0.99752623  0.56629461  0.25576645  1
  V  V9  1  0.77368832  0.25251037  0.71821123  1
  W  W10  1  0.96405870  0.66076761  0.57040864  1
  Ni  Ni11  1  0.02533377  0.80548435  0.82920414  1
  V  V12  1  0.30912712  0.35404354  0.92919397  1
  P  P13  1  0.90552413  0.52158147  0.31322488  1
  Ti  Ti14  1  0.44907343  0.37884748  0.43131271  1
  W  W15  1  0.38955247  0.74622226  0.25000161  1
  Ni  Ni16  1  0.12717311  0.20830680  0.16420259  1
  Ti  Ti17  1  0.84330809  0.67542684  0.06667709  1
  Ti  Ti18  1  0.50355005  0.73752552  0.75270253  1
  P  P19  1  0.79966486  0.14722769  0.95143545  1
  P  P20  1  0.34989110  0.86685568  0.01250236  1
  P  P21  1  0.47457761  0.90960234  0.51643521  1
  Ni  Ni22  1  0.61866152  0.21787302  0.16729252  1
  Ni  Ni23  1  0.24116233  0.21047395  0.65913749  1
  Ti  Ti24  1  0.91580278  0.04303523  0.39447719  1
