# generated using pymatgen
data_BaNa3Li3Zr3Ti4O18
_symmetry_space_group_name_H-M   'P 1'
_cell_length_a   6.52635288
_cell_length_b   6.79903936
_cell_length_c   7.23927784
_cell_angle_alpha   83.94453430
_cell_angle_beta   85.25468445
_cell_angle_gamma   88.21201324
_symmetry_Int_Tables_number   1
_chemical_formula_structural   BaNa3Li3Zr3Ti4O18
_chemical_formula_sum   'Ba1 Na3 Li3 Zr3 Ti4 O18'
_cell_volume   318.25878453
_cell_formula_units_Z   1
loop_
 _symmetry_equiv_pos_site_id
 _symmetry_equiv_pos_as_xyz
  1  'x, y, z'
loop_
 _atom_site_type_symbol
 _atom_site_label
 _atom_site_symmetry_multiplicity
 _atom_site_fract_x
 _atom_site_fract_y
 _atom_site_fract_z
 _atom_site_occupancy
  Zr  Zr0  1  0.42395034  0.84374857  0.60323381  1
  O  O1  1  0.17244460  0.71497011  0.47470742  1
  Na  Na2  1  0.92491376  0.08764318  0.34827387  1
  Ti  Ti3  1  0.92106920  0.09220177  0.84310460  1
  O  O4  1  0.17206118  0.46527502  0.22237274  1
  Na  Na5  1  0.42483708  0.83814937  0.09886229  1
  O  O6  1  0.92402107  0.32460657  0.60398018  1
  Na  Na7  1  0.42454684  0.33523148  0.59969908  1
  Zr  Zr8  1  0.92643285  0.58478111  0.35312402  1
  O  O9  1  0.42014158  0.08793933  0.35562986  1
  Ba  Ba10  1  0.92065537  0.58258015  0.84976304  1
  O  O11  1  0.67119491  0.46602383  0.21901420  1
  Zr  Zr12  1  0.42123219  0.32848316  0.09687868  1
  O  O13  1  0.16024135  0.20999053  0.96865416  1
  O  O14  1  0.68227851  0.96633309  0.72800517  1
  O  O15  1  0.42434752  0.58834559  0.84550738  1
  O  O16  1  0.68505961  0.20642138  0.97010350  1
  O  O17  1  0.92531872  0.84971595  0.09111750  1
  O  O18  1  0.15997940  0.96805906  0.72941518  1
  O  O19  1  0.67205048  0.71371144  0.47419196  1
  Ti  Ti20  1  0.41447595  0.82063818  0.18642057  1
  Li  Li21  1  0.91728669  0.79204422  0.84194994  1
  O  O22  1  0.91839647  0.47797772  0.50675058  1
  Ti  Ti23  1  0.91547436  0.48559874  0.20779902  1
  O  O24  1  0.90963453  0.16891256  0.87548429  1
  O  O25  1  0.41770270  0.47111717  0.15998745  1
  Li  Li26  1  0.41721913  0.48552215  0.54209411  1
  O  O27  1  0.92357326  0.79750925  0.18803316  1
  O  O28  1  0.41786024  0.83137202  0.86504930  1
  Ti  Ti29  1  0.40929884  0.14347020  0.84507477  1
  Li  Li30  1  0.91561502  0.15911561  0.51794738  1
  O  O31  1  0.41077495  0.12878892  0.52070588  1
