# generated using pymatgen
data_NaCa4GdTaTiAl3SiCl2O17
_symmetry_space_group_name_H-M   'P 1'
_cell_length_a   5.60126734
_cell_length_b   5.53251743
_cell_length_c   7.03370619
_cell_angle_alpha   86.17448425
_cell_angle_beta   86.91997528
_cell_angle_gamma   88.10080719
_symmetry_Int_Tables_number   1
_chemical_formula_structural   NaCa4GdTaTiAl3SiCl2O17
_chemical_formula_sum   'Na1 Ca4 Gd1 Ta1 Ti1 Al3 Si1 Cl2 O17'
_cell_volume   217.07288525
_cell_formula_units_Z   1
loop_
 _symmetry_equiv_pos_site_id
 _symmetry_equiv_pos_as_xyz
  1  'x, y, z'
loop_
 _atom_site_type_symbol
 _atom_site_label
 _atom_site_symmetry_multiplicity
 _atom_site_fract_x
 _atom_site_fract_y
 _atom_site_fract_z
 _atom_site_occupancy
  Ca  Ca0  1  0.94670099  0.06808051  0.30324709  1
  O  O1  1  0.19028550  0.82116431  0.52742821  1
  Al  Al2  1  0.93632340  0.57147610  0.53176224  1
  O  O3  1  0.94613349  0.56267774  0.27275980  1
  O  O4  1  0.25182599  0.78069752  0.02490988  1
  O  O5  1  0.39329097  0.10789603  0.80286235  1
  O  O6  1  0.69664955  0.31300941  0.52986193  1
  O  O7  1  0.19917928  0.32421613  0.50803316  1
  Al  Al8  1  0.44293681  0.07161292  0.53078681  1
  Ca  Ca9  1  0.42547342  0.55751002  0.76793671  1
  O  O10  1  0.43129089  0.07346950  0.25890538  1
  O  O11  1  0.73789078  0.89223385  0.01229634  1
  Ca  Ca12  1  0.43505159  0.57060295  0.29141089  1
  O  O13  1  0.63189405  0.37562659  0.03014172  1
  Ca  Ca14  1  0.95244813  0.07875375  0.74957341  1
  Si  Si15  1  0.47804564  0.05262429  0.02942635  1
  O  O16  1  0.68515033  0.81701851  0.54531056  1
  O  O17  1  0.97901660  0.52972627  0.78807014  1
  Al  Al18  1  0.92471814  0.60412759  0.02922598  1
  O  O19  1  0.67960000  0.95277143  0.17190400  1
  Ti  Ti20  1  0.54971367  0.14895125  0.40413576  1
  Cl  Cl21  1  0.16435942  0.93956071  0.86601412  1
  O  O22  1  0.74446630  0.99671870  0.57540524  1
  Ta  Ta23  1  0.04854643  0.23630227  0.67971170  1
  O  O24  1  0.86365461  0.40345681  0.48761630  1
  Cl  Cl25  1  0.41523641  0.45181093  0.22914124  1
  Gd  Gd26  1  0.94018537  0.68101948  0.27577102  1
  Na  Na27  1  0.62672573  0.72927999  0.79967868  1
  O  O28  1  0.36921999  0.37563354  0.66951215  1
  O  O29  1  0.90930277  0.43915391  0.93007278  1
  O  O30  1  0.22162752  0.99037832  0.41872045  1
