# generated using pymatgen
data_NaLa2MgZnSb4Se7S4
_symmetry_space_group_name_H-M   'P 1'
_cell_length_a   7.22077703
_cell_length_b   7.32811069
_cell_length_c   7.60686111
_cell_angle_alpha   111.77888489
_cell_angle_beta   100.20571136
_cell_angle_gamma   103.73469543
_symmetry_Int_Tables_number   1
_chemical_formula_structural   NaLa2MgZnSb4Se7S4
_chemical_formula_sum   'Na1 La2 Mg1 Zn1 Sb4 Se7 S4'
_cell_volume   347.04082183
_cell_formula_units_Z   1
loop_
 _symmetry_equiv_pos_site_id
 _symmetry_equiv_pos_as_xyz
  1  'x, y, z'
loop_
 _atom_site_type_symbol
 _atom_site_label
 _atom_site_symmetry_multiplicity
 _atom_site_fract_x
 _atom_site_fract_y
 _atom_site_fract_z
 _atom_site_occupancy
  Se  Se0  1  0.02261757  0.57908612  0.29752859  1
  Na  Na1  1  0.65840316  0.68318236  0.07870057  1
  Sb  Sb2  1  0.37251651  0.54087287  0.50287294  1
  Se  Se3  1  0.89301658  0.04926210  0.99715257  1
  Se  Se4  1  0.28826940  0.73991001  0.85363925  1
  Sb  Sb5  1  0.10404176  0.38867605  0.93420333  1
  Sb  Sb6  1  0.94864684  0.81904036  0.66273844  1
  Sb  Sb7  1  0.79760212  0.23439066  0.34483701  1
  Se  Se8  1  0.14526771  0.18231508  0.57628322  1
  Se  Se9  1  0.42921430  0.31779730  0.14075373  1
  Se  Se10  1  0.72836453  0.47529092  0.69227076  1
  Se  Se11  1  0.59040606  0.88584906  0.47271544  1
  Mg  Mg12  1  0.85770023  0.21900855  0.14694306  1
  S  S13  1  0.85320485  0.72334552  0.60789710  1
  S  S14  1  0.36109871  0.21532287  0.36412442  1
  La  La15  1  0.34933206  0.71930498  0.90067601  1
  La  La16  1  0.85092908  0.22419773  0.62015384  1
  S  S17  1  0.85629022  0.72138548  0.16211678  1
  S  S18  1  0.35401812  0.21692140  0.90914232  1
  Zn  Zn19  1  0.35103506  0.72815520  0.38304946  1
