# generated using pymatgen
data_Ho2Mg3Ni6AgSn4
_symmetry_space_group_name_H-M   'P 1'
_cell_length_a   5.09221411
_cell_length_b   5.10238457
_cell_length_c   5.03297710
_cell_angle_alpha   73.35009766
_cell_angle_beta   64.43031311
_cell_angle_gamma   60.78188324
_symmetry_Int_Tables_number   1
_chemical_formula_structural   Ho2Mg3Ni6AgSn4
_chemical_formula_sum   'Ho2 Mg3 Ni6 Ag1 Sn4'
_cell_volume   102.47430981
_cell_formula_units_Z   1
loop_
 _symmetry_equiv_pos_site_id
 _symmetry_equiv_pos_as_xyz
  1  'x, y, z'
loop_
 _atom_site_type_symbol
 _atom_site_label
 _atom_site_symmetry_multiplicity
 _atom_site_fract_x
 _atom_site_fract_y
 _atom_site_fract_z
 _atom_site_occupancy
  Ag  Ag0  1  0.39856774  0.89173871  0.35885328  1
  Ho  Ho1  1  0.64942372  0.13703881  0.61072457  1
  Ho  Ho2  1  0.14668217  0.64339817  0.11241859  1
  Mg  Mg3  1  0.90318322  0.38571852  0.86300504  1
  Ni  Ni4  1  0.87410790  0.17201179  0.85208714  1
  Ni  Ni5  1  0.20669051  0.01491906  0.20169961  1
  Ni  Ni6  1  0.70486259  0.51164216  0.20057508  1
  Mg  Mg7  1  0.70610744  0.01239818  0.20113483  1
  Ni  Ni8  1  0.53452259  0.84845477  0.54467738  1
  Mg  Mg9  1  0.20806839  0.51632500  0.20257598  1
  Ni  Ni10  1  0.36772364  0.67392552  0.85627931  1
  Ni  Ni11  1  0.03823427  0.34724665  0.54507643  1
  Sn  Sn12  1  0.87660396  0.68399388  0.88775903  1
  Sn  Sn13  1  0.53798670  0.33748579  0.51613837  1
  Sn  Sn14  1  0.03271992  0.83845818  0.51413512  1
  Sn  Sn15  1  0.37713659  0.17876916  0.88634610  1
