# generated using pymatgen
data_K2LiMgZr2AlTlVInSi3O19F
_symmetry_space_group_name_H-M   'P 1'
_cell_length_a   4.20240593
_cell_length_b   4.17135572
_cell_length_c   11.17364502
_cell_angle_alpha   86.19017029
_cell_angle_beta   87.68437958
_cell_angle_gamma   92.39454651
_symmetry_Int_Tables_number   1
_chemical_formula_structural   K2LiMgZr2AlTlVInSi3O19F
_chemical_formula_sum   'K2 Li1 Mg1 Zr2 Al1 Tl1 V1 In1 Si3 O19 F1'
_cell_volume   195.08421287
_cell_formula_units_Z   1
loop_
 _symmetry_equiv_pos_site_id
 _symmetry_equiv_pos_as_xyz
  1  'x, y, z'
loop_
 _atom_site_type_symbol
 _atom_site_label
 _atom_site_symmetry_multiplicity
 _atom_site_fract_x
 _atom_site_fract_y
 _atom_site_fract_z
 _atom_site_occupancy
  O  O0  1  0.27816281  0.69874477  0.87961483  1
  O  O1  1  0.76920772  0.78603917  0.68595713  1
  In  In2  1  0.28030723  0.60575277  0.07865821  1
  V  V3  1  0.27971727  0.19589388  0.86847800  1
  O  O4  1  0.27756569  0.29189503  0.68429053  1
  O  O5  1  0.78167260  0.59119236  0.08510932  1
  O  O6  1  0.28775609  0.11578537  0.04525980  1
  O  O7  1  0.77216029  0.39141276  0.47580487  1
  O  O8  1  0.77687258  0.21003777  0.85411525  1
  O  O9  1  0.27542359  0.49344712  0.27238166  1
  Zr  Zr10  1  0.76974201  0.30609605  0.65708554  1
  Tl  Tl11  1  0.26900214  0.89839798  0.46126175  1
  Zr  Zr12  1  0.77264887  0.48465469  0.28453594  1
  O  O13  1  0.77405548  0.97886837  0.29533619  1
  Mg  Mg14  1  0.77851444  0.69198263  0.87931299  1
  Si  Si15  1  0.27326211  0.98835498  0.46615475  1
  O  O16  1  0.11979985  0.71716559  0.36608821  1
  O  O17  1  0.83166790  0.29702047  0.30052537  1
  O  O18  1  0.84904909  0.09143240  0.59974122  1
  Al  Al19  1  0.13124982  0.43455395  0.38218638  1
  F  F20  1  0.44868779  0.59885114  0.51504827  1
  K  K21  1  0.96486795  0.86986148  0.89047199  1
  O  O22  1  0.11699593  0.35162047  0.05973247  1
  Li  Li23  1  0.42814091  0.79212850  0.80337954  1
  O  O24  1  0.36344433  0.03886435  0.75038892  1
  Si  Si25  1  0.70088524  0.06405766  0.32744694  1
  O  O26  1  0.15261132  0.15696327  0.39114231  1
  O  O27  1  0.65356654  0.85596389  0.09889874  1
  Si  Si28  1  0.97824037  0.36138701  0.81101167  1
  O  O29  1  0.80018950  0.44676110  0.83171815  1
  O  O30  1  0.15569012  0.52219635  0.72019386  1
  O  O31  1  0.45820105  0.04482376  0.33538485  1
  K  K32  1  0.55304766  0.45575464  0.09904592  1
