# generated using pymatgen
data_K2Na4CaNbCuSb3(O2F)6
_symmetry_space_group_name_H-M   'P 1'
_cell_length_a   6.22081327
_cell_length_b   6.31882954
_cell_length_c   8.82053757
_cell_angle_alpha   72.18074799
_cell_angle_beta   69.52522278
_cell_angle_gamma   61.76127243
_symmetry_Int_Tables_number   1
_chemical_formula_structural   K2Na4CaNbCuSb3(O2F)6
_chemical_formula_sum   'K2 Na4 Ca1 Nb1 Cu1 Sb3 O12 F6'
_cell_volume   281.98040633
_cell_formula_units_Z   1
loop_
 _symmetry_equiv_pos_site_id
 _symmetry_equiv_pos_as_xyz
  1  'x, y, z'
loop_
 _atom_site_type_symbol
 _atom_site_label
 _atom_site_symmetry_multiplicity
 _atom_site_fract_x
 _atom_site_fract_y
 _atom_site_fract_z
 _atom_site_occupancy
  O  O0  1  0.91169018  0.89720994  0.54655874  1
  Na  Na1  1  0.33432937  0.28194609  0.30713755  1
  O  O2  1  0.18726851  0.68343490  0.21301979  1
  O  O3  1  0.99726146  0.93020099  0.91198480  1
  O  O4  1  0.39790532  0.86443865  0.59550673  1
  O  O5  1  0.75541270  0.11478768  0.24121121  1
  O  O6  1  0.42020208  0.93803978  0.91169310  1
  Sb  Sb7  1  0.08707825  0.00723971  0.08226217  1
  Na  Na8  1  0.84837669  0.76425958  0.78653550  1
  O  O9  1  0.69118536  0.54337710  0.32652771  1
  O  O10  1  0.00796752  0.34091496  0.90456420  1
  K  K11  1  0.49363449  0.42348641  0.84011883  1
  Na  Na12  1  0.80237478  0.72291321  0.43529758  1
  Sb  Sb13  1  0.20839365  0.11276960  0.71989948  1
  O  O14  1  0.42551261  0.30631995  0.57970768  1
  Ca  Ca15  1  0.30129740  0.72312886  0.43715179  1
  Na  Na16  1  0.76413614  0.67612869  0.07194963  1
  O  O17  1  0.94030529  0.30462906  0.58288348  1
  O  O18  1  0.15533312  0.10801546  0.24772200  1
  Sb  Sb19  1  0.80647498  0.21716990  0.43215019  1
  F  F20  1  0.33486307  0.54119414  0.77640748  1
  O  O21  1  0.25673461  0.42524883  0.26146045  1
  K  K22  1  0.63312948  0.08510879  0.27012250  1
  Nb  Nb23  1  0.14659613  0.73228115  0.55783916  1
  F  F24  1  0.89218652  0.62152177  0.76283896  1
  F  F25  1  0.82440722  0.57939720  0.27733344  1
  F  F26  1  0.96497250  0.10460556  0.75542051  1
  F  F27  1  0.15175939  0.88074058  0.25921869  1
  F  F28  1  0.42784190  0.98387975  0.71019357  1
  Cu  Cu29  1  0.07886439  0.49100938  0.99538040  1
