# generated using pymatgen
data_Rb2NaCaGdYTl2Zn(SO6)3
_symmetry_space_group_name_H-M   'P 1'
_cell_length_a   5.13076496
_cell_length_b   5.97763205
_cell_length_c   10.60265923
_cell_angle_alpha   84.32717133
_cell_angle_beta   88.85272217
_cell_angle_gamma   81.30010223
_symmetry_Int_Tables_number   1
_chemical_formula_structural   Rb2NaCaGdYTl2Zn(SO6)3
_chemical_formula_sum   'Rb2 Na1 Ca1 Gd1 Y1 Tl2 Zn1 S3 O18'
_cell_volume   319.86172891
_cell_formula_units_Z   1
loop_
 _symmetry_equiv_pos_site_id
 _symmetry_equiv_pos_as_xyz
  1  'x, y, z'
loop_
 _atom_site_type_symbol
 _atom_site_label
 _atom_site_symmetry_multiplicity
 _atom_site_fract_x
 _atom_site_fract_y
 _atom_site_fract_z
 _atom_site_occupancy
  O  O0  1  0.63597703  0.99114949  0.87296849  1
  O  O1  1  0.48515540  0.77715677  0.19190952  1
  O  O2  1  0.26274380  0.81179047  0.76528203  1
  Rb  Rb3  1  0.41447029  0.08259805  0.41667944  1
  Zn  Zn4  1  0.40889919  0.55565006  0.64337230  1
  O  O5  1  0.77292347  0.58818543  0.69132107  1
  S  S6  1  0.39767620  0.05188223  0.80253357  1
  O  O7  1  0.17333874  0.65499544  0.05932239  1
  Na  Na8  1  0.91454864  0.15129574  0.68606776  1
  O  O9  1  0.62764037  0.51926541  0.01713575  1
  O  O10  1  0.64476705  0.56987578  0.49073434  1
  O  O11  1  0.92092991  0.89119250  0.52058327  1
  O  O12  1  0.18812414  0.21201071  0.86912447  1
  O  O13  1  0.09804322  0.49222231  0.54224056  1
  O  O14  1  0.39625359  0.37568191  0.19764197  1
  S  S15  1  0.42690781  0.58301622  0.11963258  1
  S  S16  1  0.86384213  0.64557546  0.55689925  1
  Rb  Rb17  1  0.93328714  0.10230239  0.09423417  1
  O  O18  1  0.46331602  0.18103985  0.68374383  1
  Ca  Ca19  1  0.94420272  0.62531680  0.88346660  1
  Gd  Gd20  1  0.31233963  0.54226363  0.52690148  1
  O  O21  1  0.32140902  0.79225934  0.27971673  1
  O  O22  1  0.81600028  0.03751080  0.03410183  1
  O  O23  1  0.31444046  0.78894645  0.77704078  1
  O  O24  1  0.81282747  0.54544502  0.52718931  1
  O  O25  1  0.31537130  0.29097095  0.77875167  1
  Tl  Tl26  1  0.81295270  0.04052953  0.53013766  1
  Tl  Tl27  1  0.81632131  0.53957516  0.02868138  1
  Y  Y28  1  0.31777737  0.04238997  0.02789364  1
  O  O29  1  0.31504840  0.29273883  0.27766269  1
