# generated using pymatgen
data_Dy5AlCu6SnHg4Ge5(SCl2)2
_symmetry_space_group_name_H-M   'P 1'
_cell_length_a   4.94318438
_cell_length_b   6.49879885
_cell_length_c   9.76268578
_cell_angle_alpha   101.84445953
_cell_angle_beta   106.65139008
_cell_angle_gamma   89.31536102
_symmetry_Int_Tables_number   1
_chemical_formula_structural   Dy5AlCu6SnHg4Ge5(SCl2)2
_chemical_formula_sum   'Dy5 Al1 Cu6 Sn1 Hg4 Ge5 S2 Cl4'
_cell_volume   293.70732790
_cell_formula_units_Z   1
loop_
 _symmetry_equiv_pos_site_id
 _symmetry_equiv_pos_as_xyz
  1  'x, y, z'
loop_
 _atom_site_type_symbol
 _atom_site_label
 _atom_site_symmetry_multiplicity
 _atom_site_fract_x
 _atom_site_fract_y
 _atom_site_fract_z
 _atom_site_occupancy
  S  S0  1  0.08721983  0.43107596  0.47368500  1
  Cl  Cl1  1  0.60624701  0.93032581  0.51992840  1
  Hg  Hg2  1  0.60885465  0.34265757  0.53082812  1
  Cl  Cl3  1  0.75161713  0.37000683  0.81590408  1
  Cl  Cl4  1  0.92907941  0.90297812  0.18612373  1
  Cl  Cl5  1  0.41623136  0.41302928  0.14787750  1
  Hg  Hg6  1  0.00561623  0.66312706  0.32938859  1
  Hg  Hg7  1  0.74401540  0.96320611  0.80844593  1
  Hg  Hg8  1  0.33957061  0.64620256  0.00122660  1
  S  S9  1  0.27370012  0.88039720  0.85947734  1
  Cu  Cu10  1  0.39177594  0.43449339  0.07398291  1
  Sn  Sn11  1  0.72979659  0.64863425  0.70509183  1
  Ge  Ge12  1  0.11318573  0.73221993  0.47404265  1
  Cu  Cu13  1  0.09772460  0.00432863  0.73434979  1
  Cu  Cu14  1  0.68570203  0.48063508  0.91593146  1
  Dy  Dy15  1  0.24576174  0.55029774  0.75108999  1
  Dy  Dy16  1  0.10909290  0.85932082  0.01710093  1
  Dy  Dy17  1  0.90316582  0.37105995  0.20165817  1
  Ge  Ge18  1  0.65982097  0.80596721  0.08285061  1
  Cu  Cu19  1  0.33993939  0.42599168  0.47794780  1
  Ge  Ge20  1  0.00862868  0.29605758  0.92455530  1
  Ge  Ge21  1  0.01818076  0.14244312  0.51978946  1
  Dy  Dy22  1  0.57319015  0.09834930  0.65277815  1
  Cu  Cu23  1  0.76199365  0.41091228  0.47286826  1
  Dy  Dy24  1  0.54918677  0.79456496  0.33963081  1
  Al  Al25  1  0.47965875  0.10315760  0.91957068  1
  Ge  Ge26  1  0.40974319  0.24163750  0.26422724  1
  Cu  Cu27  1  0.06154006  0.94562542  0.29288977  1
