# generated using pymatgen
data_Mg5Cu2NiHg(Sb2Ir)4
_symmetry_space_group_name_H-M   'P 1'
_cell_length_a   6.22600889
_cell_length_b   7.90085173
_cell_length_c   7.98765373
_cell_angle_alpha   100.72558594
_cell_angle_beta   82.14194489
_cell_angle_gamma   83.88712311
_symmetry_Int_Tables_number   1
_chemical_formula_structural   Mg5Cu2NiHg(Sb2Ir)4
_chemical_formula_sum   'Mg5 Cu2 Ni1 Hg1 Sb8 Ir4'
_cell_volume   378.89971135
_cell_formula_units_Z   1
loop_
 _symmetry_equiv_pos_site_id
 _symmetry_equiv_pos_as_xyz
  1  'x, y, z'
loop_
 _atom_site_type_symbol
 _atom_site_label
 _atom_site_symmetry_multiplicity
 _atom_site_fract_x
 _atom_site_fract_y
 _atom_site_fract_z
 _atom_site_occupancy
  Sb  Sb0  1  0.32505846  0.82073152  0.70715111  1
  Sb  Sb1  1  0.96100265  0.61094767  0.09069455  1
  Sb  Sb2  1  0.24171403  0.16294314  0.99852157  1
  Mg  Mg3  1  0.80880928  0.84333861  0.77297401  1
  Sb  Sb4  1  0.80901247  0.03904691  0.39617348  1
  Sb  Sb5  1  0.45212552  0.44044846  0.36574560  1
  Ir  Ir6  1  0.14564978  0.75239718  0.39530784  1
  Ir  Ir7  1  0.65878350  0.72533506  0.40767726  1
  Ir  Ir8  1  0.57701719  0.11440374  0.13857472  1
  Ir  Ir9  1  0.87489015  0.31461546  0.20208643  1
  Sb  Sb10  1  0.79035485  0.23130640  0.84847564  1
  Sb  Sb11  1  0.46952811  0.79471320  0.12383410  1
  Sb  Sb12  1  0.95645690  0.48300523  0.51375723  1
  Hg  Hg13  1  0.38675085  0.45216325  0.80967486  1
  Mg  Mg14  1  0.26842067  0.11510009  0.48661888  1
  Cu  Cu15  1  0.78551829  0.64164430  0.06291506  1
  Cu  Cu16  1  0.59458613  0.58979213  0.71479887  1
  Mg  Mg17  1  0.97725374  0.21104011  0.87445813  1
  Ni  Ni18  1  0.41462931  0.54423690  0.37344313  1
  Mg  Mg19  1  0.20633215  0.97241741  0.54402965  1
  Mg  Mg20  1  0.61105955  0.09376753  0.22193989  1
