# generated using pymatgen
data_Na2Cr4Cd2Cu2P2WSe2O17
_symmetry_space_group_name_H-M   'P 1'
_cell_length_a   5.37928867
_cell_length_b   6.06861115
_cell_length_c   7.99452686
_cell_angle_alpha   105.28289795
_cell_angle_beta   103.45822144
_cell_angle_gamma   96.38808441
_symmetry_Int_Tables_number   1
_chemical_formula_structural   Na2Cr4Cd2Cu2P2WSe2O17
_chemical_formula_sum   'Na2 Cr4 Cd2 Cu2 P2 W1 Se2 O17'
_cell_volume   240.65770756
_cell_formula_units_Z   1
loop_
 _symmetry_equiv_pos_site_id
 _symmetry_equiv_pos_as_xyz
  1  'x, y, z'
loop_
 _atom_site_type_symbol
 _atom_site_label
 _atom_site_symmetry_multiplicity
 _atom_site_fract_x
 _atom_site_fract_y
 _atom_site_fract_z
 _atom_site_occupancy
  P  P0  1  0.84257436  0.93871993  0.58693790  1
  Cu  Cu1  1  0.23600055  0.51818258  0.85056758  1
  O  O2  1  0.54767454  0.88591701  0.46314108  1
  O  O3  1  0.54541016  0.80731732  0.98149812  1
  O  O4  1  0.43500346  0.17248538  0.23063183  1
  Cu  Cu5  1  0.23135534  0.02366504  0.35010511  1
  O  O6  1  0.91394275  0.16213547  0.23288737  1
  P  P7  1  0.62529814  0.10656890  0.10979575  1
  O  O8  1  0.06337741  0.61591202  0.03795832  1
  W  W9  1  0.72886086  0.52549386  0.84723097  1
  O  O10  1  0.88012689  0.75821632  0.71115708  1
  Na  Na11  1  0.23185030  0.52075410  0.34816280  1
  O  O12  1  0.92145723  0.23970723  0.71889335  1
  O  O13  1  0.02351873  0.86280262  0.45956552  1
  O  O14  1  0.57288915  0.28031668  0.97870028  1
  O  O15  1  0.40407059  0.42607343  0.65025771  1
  Se  Se16  1  0.95177287  0.54713285  0.19326043  1
  Cd  Cd17  1  0.43773246  0.54115057  0.20751941  1
  O  O18  1  0.46695644  0.88962924  0.30597952  1
  Cr  Cr19  1  0.95909756  0.69815558  0.55343163  1
  Cd  Cd20  1  0.50744140  0.96024352  0.68766975  1
  Cr  Cr21  1  0.63815802  0.02338108  0.19764523  1
  Cr  Cr22  1  0.97887295  0.18514967  0.62692046  1
  Se  Se23  1  0.21003582  0.52136588  0.78452331  1
  O  O24  1  0.12124112  0.96987891  0.69701016  1
  O  O25  1  0.71099317  0.26234350  0.72939438  1
  O  O26  1  0.92059052  0.13023038  0.34922433  1
  O  O27  1  0.45025393  0.20838633  0.13877046  1
  O  O28  1  0.65099305  0.62772495  0.56193566  1
  Na  Na29  1  0.10900496  0.00506740  0.07638187  1
  O  O30  1  0.70485777  0.87037832  0.96535492  1
  Cr  Cr31  1  0.71468890  0.56280285  0.83341795  1
