# generated using pymatgen
data_K5La2Cu5Se2ClO13F4
_symmetry_space_group_name_H-M   'P 1'
_cell_length_a   4.72525692
_cell_length_b   6.73545265
_cell_length_c   7.39383125
_cell_angle_alpha   104.76187897
_cell_angle_beta   100.67538452
_cell_angle_gamma   94.67294312
_symmetry_Int_Tables_number   1
_chemical_formula_structural   K5La2Cu5Se2ClO13F4
_chemical_formula_sum   'K5 La2 Cu5 Se2 Cl1 O13 F4'
_cell_volume   221.55654702
_cell_formula_units_Z   1
loop_
 _symmetry_equiv_pos_site_id
 _symmetry_equiv_pos_as_xyz
  1  'x, y, z'
loop_
 _atom_site_type_symbol
 _atom_site_label
 _atom_site_symmetry_multiplicity
 _atom_site_fract_x
 _atom_site_fract_y
 _atom_site_fract_z
 _atom_site_occupancy
  O  O0  1  0.13136865  0.58326095  0.84904468  1
  O  O1  1  0.39345369  0.06475878  0.87050492  1
  Se  Se2  1  0.17169341  0.55234182  0.64421713  1
  K  K3  1  0.65290511  0.04602404  0.60315198  1
  F  F4  1  0.07205968  0.27399874  0.52551818  1
  F  F5  1  0.48353019  0.38833588  0.19180520  1
  O  O6  1  0.03349819  0.70789063  0.50716007  1
  K  K7  1  0.90213346  0.62035197  0.12552734  1
  F  F8  1  0.53293139  0.53391880  0.64602160  1
  Se  Se9  1  0.38157853  0.10439350  0.07755183  1
  F  F10  1  0.02101465  0.13499551  0.07341197  1
  O  O11  1  0.52562237  0.94303942  0.21680559  1
  O  O12  1  0.91304743  0.06734610  0.96077657  1
  Cu  Cu13  1  0.44040588  0.88405043  0.42940354  1
  Cl  Cl14  1  0.59899604  0.37590611  0.77008837  1
  Cu  Cu15  1  0.63811493  0.89864743  0.79874492  1
  O  O16  1  0.67615789  0.35282376  0.19669837  1
  Cu  Cu17  1  0.46461651  0.45283046  0.07878503  1
  O  O18  1  0.21859168  0.51174384  0.97197056  1
  O  O19  1  0.57292449  0.04745688  0.35783529  1
  Cu  Cu20  1  0.27338335  0.54327792  0.78493404  1
  K  K21  1  0.93116385  0.06775358  0.27489877  1
  O  O22  1  0.11818620  0.78852725  0.36842930  1
  O  O23  1  0.32686684  0.80738115  0.74697769  1
  La  La24  1  0.97460645  0.44363579  0.10188507  1
  K  K25  1  0.29598182  0.96509612  0.04836887  1
  La  La26  1  0.63487744  0.41652089  0.45361042  1
  Cu  Cu27  1  0.18353517  0.61307985  0.49880910  1
  O  O28  1  0.24023619  0.41497889  0.32379127  1
  K  K29  1  0.02630163  0.06803423  0.67068011  1
  O  O30  1  0.64431196  0.78118140  0.58401036  1
  O  O31  1  0.02646140  0.41694829  0.56377482  1
