# generated using pymatgen
data_Eu3MnNb3CoCu2BiO19
_symmetry_space_group_name_H-M   'P 1'
_cell_length_a   4.18442631
_cell_length_b   4.21884441
_cell_length_c   12.48295212
_cell_angle_alpha   88.20252991
_cell_angle_beta   89.44194031
_cell_angle_gamma   88.82541656
_symmetry_Int_Tables_number   1
_chemical_formula_structural   Eu3MnNb3CoCu2BiO19
_chemical_formula_sum   'Eu3 Mn1 Nb3 Co1 Cu2 Bi1 O19'
_cell_volume   220.20325179
_cell_formula_units_Z   1
loop_
 _symmetry_equiv_pos_site_id
 _symmetry_equiv_pos_as_xyz
  1  'x, y, z'
loop_
 _atom_site_type_symbol
 _atom_site_label
 _atom_site_symmetry_multiplicity
 _atom_site_fract_x
 _atom_site_fract_y
 _atom_site_fract_z
 _atom_site_occupancy
  Nb  Nb0  1  0.41706973  0.42157555  0.00587161  1
  O  O1  1  0.42057911  0.92335039  0.66370147  1
  Co  Co2  1  0.41539046  0.93219560  0.82911509  1
  O  O3  1  0.41616210  0.43070999  0.82081991  1
  Nb  Nb4  1  0.91433525  0.85809296  0.31256935  1
  O  O5  1  0.91646743  0.43919656  0.96821713  1
  O  O6  1  0.91326648  0.41494983  0.33147267  1
  O  O7  1  0.91195470  0.90570718  0.18705426  1
  Nb  Nb8  1  0.41257125  0.98007679  0.52526146  1
  O  O9  1  0.41111064  0.91717070  0.35114640  1
  O  O10  1  0.41321787  0.42679164  0.13578698  1
  O  O11  1  0.90764189  0.92304450  0.49104315  1
  O  O12  1  0.41954383  0.92941940  0.97647309  1
  O  O13  1  0.91161901  0.91993970  0.80761302  1
  O  O14  1  0.40910819  0.42932484  0.51549202  1
  Bi  Bi15  1  0.91594326  0.43506745  0.73803157  1
  Eu  Eu16  1  0.57046837  0.22283775  0.47295511  1
  O  O17  1  0.56388766  0.09394655  0.76706511  1
  Cu  Cu18  1  0.06325925  0.73172432  0.45456523  1
  O  O19  1  0.55624419  0.79162365  0.45208359  1
  O  O20  1  0.05267535  0.80364525  0.69555289  1
  O  O21  1  0.06718934  0.00133730  0.22661959  1
  Eu  Eu22  1  0.54994428  0.90504527  0.13206536  1
  O  O23  1  0.05118413  0.79353321  0.07333079  1
  O  O24  1  0.56320328  0.40237135  0.13910490  1
  O  O25  1  0.06300354  0.38358948  0.41990924  1
  O  O26  1  0.05910702  0.35447830  0.88362288  1
  Cu  Cu27  1  0.06477835  0.07631584  0.79531413  1
  Eu  Eu28  1  0.56662738  0.58322054  0.78607833  1
  Mn  Mn29  1  0.06356208  0.39644131  0.14293669  1
