# generated using pymatgen
data_RbNaCaMg3ZnW4N3ClO13
_symmetry_space_group_name_H-M   'P 1'
_cell_length_a   4.20051908
_cell_length_b   4.47179031
_cell_length_c   9.30759525
_cell_angle_alpha   100.93898773
_cell_angle_beta   102.76148987
_cell_angle_gamma   89.05562592
_symmetry_Int_Tables_number   1
_chemical_formula_structural   RbNaCaMg3ZnW4N3ClO13
_chemical_formula_sum   'Rb1 Na1 Ca1 Mg3 Zn1 W4 N3 Cl1 O13'
_cell_volume   167.35634522
_cell_formula_units_Z   1
loop_
 _symmetry_equiv_pos_site_id
 _symmetry_equiv_pos_as_xyz
  1  'x, y, z'
loop_
 _atom_site_type_symbol
 _atom_site_label
 _atom_site_symmetry_multiplicity
 _atom_site_fract_x
 _atom_site_fract_y
 _atom_site_fract_z
 _atom_site_occupancy
  Na  Na0  1  0.69511229  0.07038134  0.52916908  1
  O  O1  1  0.80642998  0.68362314  0.75668156  1
  N  N2  1  0.41355437  0.79172355  0.96510184  1
  Mg  Mg3  1  0.43771529  0.32925481  0.03114345  1
  W  W4  1  0.07660503  0.48291442  0.31420925  1
  W  W5  1  0.30576760  0.68115991  0.75201774  1
  O  O6  1  0.57223541  0.46484950  0.30035245  1
  N  N7  1  0.19663820  0.57896662  0.53409457  1
  N  N8  1  0.97209704  0.35662940  0.08548942  1
  Zn  Zn9  1  0.94523692  0.83159101  0.03013816  1
  O  O10  1  0.07867387  0.96882671  0.30405831  1
  O  O11  1  0.30915412  0.18752994  0.76074028  1
  Rb  Rb12  1  0.28820229  0.73467290  0.24129850  1
  O  O13  1  0.74172693  0.90799785  0.38151783  1
  O  O14  1  0.11458850  0.25066140  0.34385461  1
  Mg  Mg15  1  0.31552780  0.31688946  0.53583956  1
  O  O16  1  0.35666662  0.89337915  0.93049014  1
  W  W17  1  0.21441056  0.76730186  0.75800377  1
  O  O18  1  0.61201322  0.42428714  0.43542579  1
  Cl  Cl19  1  0.08113750  0.44157293  0.93266493  1
  O  O20  1  0.49881110  0.53412962  0.72398227  1
  W  W21  1  0.78915393  0.20817807  0.32137802  1
  Mg  Mg22  1  0.72125620  0.72383809  0.57581508  1
  O  O23  1  0.91193348  0.93157911  0.75004774  1
  O  O24  1  0.39651012  0.99242073  0.64102364  1
  O  O25  1  0.66055077  0.24262078  0.13255851  1
  O  O26  1  0.07944289  0.58571106  0.59005934  1
  Ca  Ca27  1  0.60716408  0.19788547  0.87663883  1
