# generated using pymatgen
data_NaLi3Be3Nb2V3SiAsH3(NO3)4
_symmetry_space_group_name_H-M   'P 1'
_cell_length_a   5.97473192
_cell_length_b   6.03247833
_cell_length_c   6.11299467
_cell_angle_alpha   119.60320282
_cell_angle_beta   89.08993530
_cell_angle_gamma   88.27907562
_symmetry_Int_Tables_number   1
_chemical_formula_structural   NaLi3Be3Nb2V3SiAsH3(NO3)4
_chemical_formula_sum   'Na1 Li3 Be3 Nb2 V3 Si1 As1 H3 N4 O12'
_cell_volume   191.36128916
_cell_formula_units_Z   1
loop_
 _symmetry_equiv_pos_site_id
 _symmetry_equiv_pos_as_xyz
  1  'x, y, z'
loop_
 _atom_site_type_symbol
 _atom_site_label
 _atom_site_symmetry_multiplicity
 _atom_site_fract_x
 _atom_site_fract_y
 _atom_site_fract_z
 _atom_site_occupancy
  O  O0  1  0.04433898  0.97063178  0.96943116  1
  O  O1  1  0.35612476  0.48938641  0.55215478  1
  Be  Be2  1  0.78810954  0.96892762  0.50431448  1
  Na  Na3  1  0.28196785  0.75335824  0.07693499  1
  As  As4  1  0.18348165  0.10824335  0.79042870  1
  H  H5  1  0.23830311  0.43383056  0.42886770  1
  O  O6  1  0.06102319  0.95854688  0.48911485  1
  Si  Si7  1  0.62010896  0.47543919  0.50733799  1
  O  O8  1  0.04473546  0.42497993  0.96711206  1
  O  O9  1  0.70107734  0.64036149  0.33571485  1
  Be  Be10  1  0.77909243  0.97276777  0.99381423  1
  O  O11  1  0.69427437  0.64490288  0.84331357  1
  O  O12  1  0.69709688  0.14132118  0.83441854  1
  O  O13  1  0.70492685  0.14421308  0.33658230  1
  Be  Be14  1  0.78057665  0.46247554  0.99364501  1
  V  V15  1  0.54637152  0.86437792  0.28327096  1
  O  O16  1  0.04070164  0.58965057  0.77820098  1
  Nb  Nb17  1  0.53013361  0.33953667  0.26963031  1
  V  V18  1  0.04117371  0.21600391  0.52192879  1
  N  N19  1  0.53508258  0.98089749  0.02042696  1
  N  N20  1  0.54112571  0.47235546  0.02344821  1
  N  N21  1  0.53808397  0.71105266  0.51509571  1
  V  V22  1  0.54284692  0.06216960  0.74979538  1
  H  H23  1  0.10558546  0.21074526  0.89484543  1
  Nb  Nb24  1  0.52987641  0.62274271  0.78008807  1
  N  N25  1  0.53564471  0.23931210  0.53619266  1
  O  O26  1  0.03404240  0.34754074  0.27227950  1
  Li  Li27  1  0.05393000  0.56429350  0.08125801  1
  Li  Li28  1  0.03233936  0.96112728  0.04190633  1
  H  H29  1  0.73534316  0.39946941  0.95762682  1
  Li  Li30  1  0.03949926  0.72713721  0.51922029  1
  O  O31  1  0.03744318  0.87872571  0.29599193  1
  O  O32  1  0.04387484  0.09198114  0.76405168  1
