# generated using pymatgen
data_GdLuSb2(PdSe2)2
_symmetry_space_group_name_H-M   'P 1'
_cell_length_a   3.82558846
_cell_length_b   4.20151234
_cell_length_c   7.62408590
_cell_angle_alpha   93.39868164
_cell_angle_beta   89.22565460
_cell_angle_gamma   89.36917877
_symmetry_Int_Tables_number   1
_chemical_formula_structural   GdLuSb2(PdSe2)2
_chemical_formula_sum   'Gd1 Lu1 Sb2 Pd2 Se4'
_cell_volume   122.30862700
_cell_formula_units_Z   1
loop_
 _symmetry_equiv_pos_site_id
 _symmetry_equiv_pos_as_xyz
  1  'x, y, z'
loop_
 _atom_site_type_symbol
 _atom_site_label
 _atom_site_symmetry_multiplicity
 _atom_site_fract_x
 _atom_site_fract_y
 _atom_site_fract_z
 _atom_site_occupancy
  Se  Se0  1  0.59724015  0.94588619  0.70110452  1
  Se  Se1  1  0.61011791  0.44624221  0.05701738  1
  Se  Se2  1  0.09924347  0.94645846  0.32445771  1
  Lu  Lu3  1  0.10180192  0.94044554  0.97257930  1
  Se  Se4  1  0.09870305  0.43701798  0.69992626  1
  Gd  Gd5  1  0.59208560  0.44532067  0.41859764  1
  Sb  Sb6  1  0.63573438  0.35283545  0.35168785  1
  Pd  Pd7  1  0.13793552  0.84668642  0.35728091  1
  Sb  Sb8  1  0.13356523  0.85349762  0.85688013  1
  Pd  Pd9  1  0.63564569  0.34867069  0.85449815  1
