# generated using pymatgen
data_KCaAcTl2Cd2Ga(HgRh)2
_symmetry_space_group_name_H-M   'P 1'
_cell_length_a   5.39696217
_cell_length_b   5.48982382
_cell_length_c   9.19714165
_cell_angle_alpha   86.15022278
_cell_angle_beta   87.67597198
_cell_angle_gamma   109.28028870
_symmetry_Int_Tables_number   1
_chemical_formula_structural   KCaAcTl2Cd2Ga(HgRh)2
_chemical_formula_sum   'K1 Ca1 Ac1 Tl2 Cd2 Ga1 Hg2 Rh2'
_cell_volume   256.06313005
_cell_formula_units_Z   1
loop_
 _symmetry_equiv_pos_site_id
 _symmetry_equiv_pos_as_xyz
  1  'x, y, z'
loop_
 _atom_site_type_symbol
 _atom_site_label
 _atom_site_symmetry_multiplicity
 _atom_site_fract_x
 _atom_site_fract_y
 _atom_site_fract_z
 _atom_site_occupancy
  Tl  Tl0  1  0.74368048  0.85109472  0.98374307  1
  Hg  Hg1  1  0.93443805  0.11317717  0.26964396  1
  Hg  Hg2  1  0.08133502  0.52703851  0.99122423  1
  Tl  Tl3  1  0.17808706  0.66743302  0.61228299  1
  Cd  Cd4  1  0.27530605  0.82023054  0.25142962  1
  K  K5  1  0.46052700  0.25645533  0.83532786  1
  Cd  Cd6  1  0.85196650  0.01001390  0.61177385  1
  Ac  Ac7  1  0.56971020  0.42079753  0.37946382  1
  Ga  Ga8  1  0.16665559  0.28604764  0.81822938  1
  Rh  Rh9  1  0.15686417  0.79104310  0.32422629  1
  Ca  Ca10  1  0.67080718  0.28876224  0.31914979  1
  Rh  Rh11  1  0.66271001  0.78853315  0.81874049  1
