# generated using pymatgen
data_CsK3Rb2CaDy4ErTmZrSc3UInCuPS6(O5F6)3
_symmetry_space_group_name_H-M   'P 1'
_cell_length_a   6.07587099
_cell_length_b   5.94029474
_cell_length_c   6.20144558
_cell_angle_alpha   84.00587463
_cell_angle_beta   70.00710297
_cell_angle_gamma   71.27500916
_symmetry_Int_Tables_number   1
_chemical_formula_structural   CsK3Rb2CaDy4ErTmZrSc3UInCuPS6(O5F6)3
_chemical_formula_sum
'Cs1 Rb2 K3 Ca1 Dy4 Er1 Tm1 Zr1 Sc3 U1 In1 Cu1 P1 S6 O15 F18'
_cell_volume   199.19999499
_cell_formula_units_Z   1
loop_
 _symmetry_equiv_pos_site_id
 _symmetry_equiv_pos_as_xyz
  1  'x, y, z'
loop_
 _atom_site_type_symbol
 _atom_site_label
 _atom_site_symmetry_multiplicity
 _atom_site_fract_x
 _atom_site_fract_y
 _atom_site_fract_z
 _atom_site_occupancy
  P  P0  1  0.30556431  0.65083629  0.94116527  1
  F  F1  1  0.82523346  0.99809235  0.70301044  1
  Cs  Cs2  1  0.97072983  0.46004230  0.50957549  1
  O  O3  1  0.36315584  0.62594163  0.70563537  1
  F  F4  1  0.89300787  0.27569169  0.04070970  1
  O  O5  1  0.40194973  0.38590649  0.02108403  1
  O  O6  1  0.00383271  0.76218206  0.07420228  1
  U  U7  1  0.67971444  0.04182887  0.03539009  1
  F  F8  1  0.53106219  0.08104467  0.35406387  1
  O  O9  1  0.44591436  0.81150317  0.01633732  1
  F  F10  1  0.47018105  0.55963808  0.61626852  1
  Rb  Rb11  1  0.94786334  0.57833552  0.64253348  1
  F  F12  1  0.92810619  0.09820995  0.61729264  1
  Rb  Rb13  1  0.43861380  0.05762325  0.12638153  1
  Ca  Ca14  1  0.68792623  0.32261491  0.38398769  1
  F  F15  1  0.91505033  0.08710046  0.14993674  1
  F  F16  1  0.45548493  0.08137523  0.60724956  1
  F  F17  1  0.92817974  0.55639410  0.15940702  1
  K  K18  1  0.19494331  0.81921583  0.88290930  1
  F  F19  1  0.45368892  0.54226321  0.14339876  1
  O  O20  1  0.99461657  0.06658277  0.87121308  1
  Zr  Zr21  1  0.15874706  0.41128075  0.25273266  1
  Cu  Cu22  1  0.50226402  0.06741641  0.87541407  1
  O  O23  1  0.75699914  0.61266881  0.76991719  1
  Dy  Dy24  1  0.33544523  0.49654853  0.71175373  1
  Dy  Dy25  1  0.86504489  0.02290392  0.17724690  1
  In  In26  1  0.82013017  0.73392808  0.50486094  1
  O  O27  1  0.73583692  0.00807379  0.44802684  1
  O  O28  1  0.47834289  0.92158252  0.05488595  1
  O  O29  1  0.27934450  0.77458358  0.57216722  1
  Dy  Dy30  1  0.14110290  0.09566591  0.56597900  1
  Dy  Dy31  1  0.63969868  0.63982093  0.02889676  1
  O  O32  1  0.25843799  0.14871736  0.28053001  1
  O  O33  1  0.05685718  0.42714721  0.50191545  1
  O  O34  1  0.67862660  0.39798406  0.19928771  1
  O  O35  1  0.22149432  0.50932395  0.98801422  1
  O  O36  1  0.98591733  0.70720655  0.23510318  1
  O  O37  1  0.53250211  0.20959082  0.68909651  1
  Sc  Sc38  1  0.97297919  0.83335489  0.03609173  1
  F  F39  1  0.47061765  0.50269502  0.36699548  1
  F  F40  1  0.47636965  0.83274943  0.03630985  1
  F  F41  1  0.97500390  0.99930537  0.86519760  1
  Sc  Sc42  1  0.96955508  0.50009453  0.36411735  1
  F  F43  1  0.97318596  0.83444750  0.54152596  1
  F  F44  1  0.97416842  0.33220509  0.53684962  1
  F  F45  1  0.47641805  0.16900052  0.70522636  1
  F  F46  1  0.98091453  0.66770816  0.19962583  1
  F  F47  1  0.97422773  0.49809563  0.87060970  1
  Sc  Sc48  1  0.97244513  0.16906239  0.70268029  1
  F  F49  1  0.97448486  0.16787757  0.20025736  1
  Er  Er50  1  0.53680754  0.51068640  0.16907437  1
  K  K51  1  0.04225792  0.51699233  0.66674721  1
  S  S52  1  0.04812534  0.01274385  0.67331809  1
  K  K53  1  0.04294299  0.01026663  0.16423251  1
  S  S54  1  0.54378939  0.18708280  0.35161105  1
  S  S55  1  0.53818733  0.83824933  0.98657691  1
  S  S56  1  0.03831460  0.51288843  0.16956307  1
  S  S57  1  0.54626954  0.32817441  0.85651785  1
  Tm  Tm58  1  0.54959738  0.01051230  0.67063820  1
  S  S59  1  0.53715718  0.69212949  0.48187238  1
