# generated using pymatgen
data_Li2Ta2Ti(Co3Hg)2
_symmetry_space_group_name_H-M   'P 1'
_cell_length_a   3.88021851
_cell_length_b   4.00741434
_cell_length_c   6.12359333
_cell_angle_alpha   90.64649963
_cell_angle_beta   90.50247192
_cell_angle_gamma   94.20240021
_symmetry_Int_Tables_number   1
_chemical_formula_structural   Li2Ta2Ti(Co3Hg)2
_chemical_formula_sum   'Li2 Ta2 Ti1 Co6 Hg2'
_cell_volume   94.95324305
_cell_formula_units_Z   1
loop_
 _symmetry_equiv_pos_site_id
 _symmetry_equiv_pos_as_xyz
  1  'x, y, z'
loop_
 _atom_site_type_symbol
 _atom_site_label
 _atom_site_symmetry_multiplicity
 _atom_site_fract_x
 _atom_site_fract_y
 _atom_site_fract_z
 _atom_site_occupancy
  Hg  Hg0  1  0.76307911  0.49544427  0.48310205  1
  Ti  Ti1  1  0.76177359  0.99207741  0.97997993  1
  Li  Li2  1  0.26426935  0.99594355  0.29075441  1
  Li  Li3  1  0.26046026  0.98837334  0.66420722  1
  Hg  Hg4  1  0.26000690  0.49243677  0.97584224  1
  Co  Co5  1  0.99778235  0.04584340  0.44008315  1
  Co  Co6  1  0.50321990  0.29123425  0.69266659  1
  Ta  Ta7  1  0.01276252  0.54192561  0.43923101  1
  Co  Co8  1  0.50605810  0.28841326  0.19377118  1
  Co  Co9  1  0.49963677  0.79244345  0.19273233  1
  Co  Co10  1  0.50032884  0.78667051  0.69141489  1
  Co  Co11  1  0.00195701  0.54178113  0.93841797  1
  Ta  Ta12  1  0.00368133  0.04277024  0.94211996  1
