# generated using pymatgen
data_Ba2Ni11GeSe6S8N
_symmetry_space_group_name_H-M   'P 1'
_cell_length_a   6.14934397
_cell_length_b   6.48124504
_cell_length_c   6.92677975
_cell_angle_alpha   100.72209167
_cell_angle_beta   83.37456512
_cell_angle_gamma   90.17095947
_symmetry_Int_Tables_number   1
_chemical_formula_structural   Ba2Ni11GeSe6S8N
_chemical_formula_sum   'Ba2 Ni11 Ge1 Se6 S8 N1'
_cell_volume   269.38993448
_cell_formula_units_Z   1
loop_
 _symmetry_equiv_pos_site_id
 _symmetry_equiv_pos_as_xyz
  1  'x, y, z'
loop_
 _atom_site_type_symbol
 _atom_site_label
 _atom_site_symmetry_multiplicity
 _atom_site_fract_x
 _atom_site_fract_y
 _atom_site_fract_z
 _atom_site_occupancy
  Ni  Ni0  1  0.31189707  0.55211484  0.46605480  1
  Ge  Ge1  1  0.57550156  0.04003963  0.60033590  1
  Ni  Ni2  1  0.80798364  0.53504831  0.20363863  1
  Ni  Ni3  1  0.07604359  0.04809764  0.31683752  1
  S  S4  1  0.12111855  0.66089189  0.72997433  1
  S  S5  1  0.63461065  0.65934134  0.48995909  1
  S  S6  1  0.37403190  0.19311006  0.38797495  1
  S  S7  1  0.89593649  0.15188234  0.62167031  1
  Ni  Ni8  1  0.07189652  0.01720359  0.88066655  1
  Ni  Ni9  1  0.81743181  0.52284616  0.70620751  1
  N  N10  1  0.21687172  0.86980379  0.08949495  1
  S  S11  1  0.12352651  0.67194229  0.23474757  1
  S  S12  1  0.36415356  0.18801442  0.86979210  1
  S  S13  1  0.64174223  0.64915603  0.98299903  1
  Ni  Ni14  1  0.31140119  0.56995499  0.96239769  1
  S  S15  1  0.83513248  0.16724136  0.11850837  1
  Ni  Ni16  1  0.51011181  0.02014102  0.09400330  1
  Ni  Ni17  1  0.27090237  0.58284622  0.65383679  1
  Se  Se18  1  0.27186167  0.05141256  0.95952886  1
  Ni  Ni19  1  0.50754517  0.77304631  0.94194853  1
  Se  Se20  1  0.26741540  0.76166493  0.44394171  1
  Se  Se21  1  0.26955667  0.26354834  0.43603995  1
  Se  Se22  1  0.25859979  0.47940278  0.92209423  1
  Se  Se23  1  0.76931512  0.91852885  0.19827582  1
  Ni  Ni24  1  0.27121404  0.95720518  0.23442748  1
  Ba  Ba25  1  0.77413934  0.09721362  0.65628886  1
  Ba  Ba26  1  0.76341414  0.43439528  0.22566767  1
  Se  Se27  1  0.76965064  0.61452013  0.69246268  1
  Ni  Ni28  1  0.02240454  0.76973236  0.94800484  1
