# generated using pymatgen
data_Na2Li2BeNiSn2BiP2H2O17
_symmetry_space_group_name_H-M   'P 1'
_cell_length_a   4.80437279
_cell_length_b   5.30423069
_cell_length_c   6.74254131
_cell_angle_alpha   109.47183990
_cell_angle_beta   99.34898376
_cell_angle_gamma   91.95513153
_symmetry_Int_Tables_number   1
_chemical_formula_structural   Na2Li2BeNiSn2BiP2H2O17
_chemical_formula_sum   'Na2 Li2 Be1 Ni1 Sn2 Bi1 P2 H2 O17'
_cell_volume   159.12328135
_cell_formula_units_Z   1
loop_
 _symmetry_equiv_pos_site_id
 _symmetry_equiv_pos_as_xyz
  1  'x, y, z'
loop_
 _atom_site_type_symbol
 _atom_site_label
 _atom_site_symmetry_multiplicity
 _atom_site_fract_x
 _atom_site_fract_y
 _atom_site_fract_z
 _atom_site_occupancy
  O  O0  1  0.89327049  0.39132661  0.64397025  1
  O  O1  1  0.24013424  0.08522081  0.43895385  1
  H  H2  1  0.11647692  0.20406376  0.51755643  1
  O  O3  1  0.37963912  0.68095291  0.87381625  1
  P  P4  1  0.11960777  0.78671539  0.35480377  1
  O  O5  1  0.83163321  0.73467708  0.14222652  1
  Li  Li6  1  0.48100048  0.47035643  0.07114168  1
  Be  Be7  1  0.02738969  0.69102371  0.71976006  1
  H  H8  1  0.86504513  0.32078606  0.74685889  1
  O  O9  1  0.31345847  0.58528996  0.29122496  1
  Li  Li10  1  0.52100128  0.30803725  0.38745892  1
  P  P11  1  0.65121967  0.88688546  0.98658961  1
  O  O12  1  0.99735242  0.74580467  0.50945371  1
  O  O13  1  0.59028828  0.15710174  0.11405008  1
  O  O14  1  0.84166718  0.90367848  0.84373158  1
  Na  Na15  1  0.65547347  0.58276647  0.94646370  1
  O  O16  1  0.84173673  0.76751143  0.69637394  1
  Bi  Bi17  1  0.07687816  0.97191685  0.53091884  1
  O  O18  1  0.13650888  0.36763108  0.71094161  1
  O  O19  1  0.34338167  0.26509303  0.04684333  1
  Sn  Sn20  1  0.95184278  0.19972050  0.87871528  1
  Ni  Ni21  1  0.76875371  0.34899777  0.56362903  1
  Sn  Sn22  1  0.49625191  0.06052290  0.17236793  1
  O  O23  1  0.74262989  0.03000097  0.03692196  1
  O  O24  1  0.89423651  0.48774087  0.38909560  1
  O  O25  1  0.34385219  0.16059980  0.38288957  1
  O  O26  1  0.60529900  0.19303660  0.70672363  1
  Na  Na27  1  0.27478090  0.49331552  0.30857503  1
  O  O28  1  0.68830150  0.94708198  0.37314403  1
  O  O29  1  0.11645827  0.63754392  0.05294995  1
