# generated using pymatgen
data_Li2Ac(TiC)2
_symmetry_space_group_name_H-M   'P 1'
_cell_length_a   4.29933357
_cell_length_b   4.34199142
_cell_length_c   4.82956362
_cell_angle_alpha   90.35710907
_cell_angle_beta   88.81329346
_cell_angle_gamma   90.37685394
_symmetry_Int_Tables_number   1
_chemical_formula_structural   Li2Ac(TiC)2
_chemical_formula_sum   'Li2 Ac1 Ti2 C2'
_cell_volume   90.13373468
_cell_formula_units_Z   1
loop_
 _symmetry_equiv_pos_site_id
 _symmetry_equiv_pos_as_xyz
  1  'x, y, z'
loop_
 _atom_site_type_symbol
 _atom_site_label
 _atom_site_symmetry_multiplicity
 _atom_site_fract_x
 _atom_site_fract_y
 _atom_site_fract_z
 _atom_site_occupancy
  Ti  Ti0  1  0.23428375  0.17439385  0.14508881  1
  Li  Li1  1  0.72845137  0.17325266  0.64131111  1
  Li  Li2  1  0.22759169  0.67735106  0.64384550  1
  C  C3  1  0.73550445  0.17464869  0.14000319  1
  Ti  Ti4  1  0.72941124  0.67759109  0.13827762  1
  C  C5  1  0.23177427  0.66774744  0.15520692  1
  Ac  Ac6  1  0.46256542  0.79319894  0.87377113  1
