# generated using pymatgen
data_CaPm2Mn(InPb)2
_symmetry_space_group_name_H-M   'P 1'
_cell_length_a   3.74198437
_cell_length_b   3.94615149
_cell_length_c   7.76707172
_cell_angle_alpha   87.46324921
_cell_angle_beta   89.96272278
_cell_angle_gamma   96.69511414
_symmetry_Int_Tables_number   1
_chemical_formula_structural   CaPm2Mn(InPb)2
_chemical_formula_sum   'Ca1 Pm2 Mn1 In2 Pb2'
_cell_volume   113.79626698
_cell_formula_units_Z   1
loop_
 _symmetry_equiv_pos_site_id
 _symmetry_equiv_pos_as_xyz
  1  'x, y, z'
loop_
 _atom_site_type_symbol
 _atom_site_label
 _atom_site_symmetry_multiplicity
 _atom_site_fract_x
 _atom_site_fract_y
 _atom_site_fract_z
 _atom_site_occupancy
  Mn  Mn0  1  0.70975965  0.84125811  0.42369035  1
  Pb  Pb1  1  0.22157298  0.34423521  0.63949728  1
  Pb  Pb2  1  0.21521699  0.34776300  0.20848207  1
  Ca  Ca3  1  0.71229154  0.84093034  0.92293274  1
  In  In4  1  0.05736089  0.24478213  0.36600918  1
  Pm  Pm5  1  0.56665021  0.75002521  0.61787242  1
  Pm  Pm6  1  0.56312037  0.74720371  0.12102335  1
  In  In7  1  0.06888451  0.24784821  0.87064707  1
