# generated using pymatgen
data_Er3Mg(TlSb)2
_symmetry_space_group_name_H-M   'P 1'
_cell_length_a   3.78632617
_cell_length_b   4.00880671
_cell_length_c   4.51077127
_cell_angle_alpha   104.44531250
_cell_angle_beta   101.81663513
_cell_angle_gamma   90.67835999
_symmetry_Int_Tables_number   1
_chemical_formula_structural   Er3Mg(TlSb)2
_chemical_formula_sum   'Er3 Mg1 Tl2 Sb2'
_cell_volume   64.75465331
_cell_formula_units_Z   1
loop_
 _symmetry_equiv_pos_site_id
 _symmetry_equiv_pos_as_xyz
  1  'x, y, z'
loop_
 _atom_site_type_symbol
 _atom_site_label
 _atom_site_symmetry_multiplicity
 _atom_site_fract_x
 _atom_site_fract_y
 _atom_site_fract_z
 _atom_site_occupancy
  Tl  Tl0  1  0.33417615  0.80043143  0.79375106  1
  Tl  Tl1  1  0.83735788  0.29563165  0.28648391  1
  Sb  Sb2  1  0.52076888  0.02048426  0.79247427  1
  Er  Er3  1  0.01098824  0.84335393  0.47113574  1
  Mg  Mg4  1  0.51588970  0.34402904  0.47503459  1
  Sb  Sb5  1  0.51451004  0.66272110  0.14467514  1
  Er  Er6  1  0.01349235  0.52282667  0.80656612  1
  Er  Er7  1  0.01156613  0.16618960  0.12830850  1
