# generated using pymatgen
data_Li2CaLaDy4TaMn(SO)8
_symmetry_space_group_name_H-M   'P 1'
_cell_length_a   5.10202694
_cell_length_b   6.56308460
_cell_length_c   7.33572912
_cell_angle_alpha   68.27215576
_cell_angle_beta   68.20616150
_cell_angle_gamma   73.14570618
_symmetry_Int_Tables_number   1
_chemical_formula_structural   Li2CaLaDy4TaMn(SO)8
_chemical_formula_sum   'Li2 Ca1 La1 Dy4 Ta1 Mn1 S8 O8'
_cell_volume   208.53838238
_cell_formula_units_Z   1
loop_
 _symmetry_equiv_pos_site_id
 _symmetry_equiv_pos_as_xyz
  1  'x, y, z'
loop_
 _atom_site_type_symbol
 _atom_site_label
 _atom_site_symmetry_multiplicity
 _atom_site_fract_x
 _atom_site_fract_y
 _atom_site_fract_z
 _atom_site_occupancy
  S  S0  1  0.03316186  0.17274153  0.30749398  1
  Dy  Dy1  1  0.81158113  0.01230296  0.75946951  1
  S  S2  1  0.65741056  0.27949768  0.01106352  1
  S  S3  1  0.22677889  0.97789466  0.11911687  1
  S  S4  1  0.82958108  0.68107146  0.09891725  1
  Dy  Dy5  1  0.18554193  0.41073725  0.87951487  1
  S  S6  1  0.31002486  0.18551946  0.61867076  1
  S  S7  1  0.05826127  0.71756536  0.57052898  1
  Dy  Dy8  1  0.29200494  0.52223843  0.27720407  1
  Ca  Ca9  1  0.59878057  0.91212767  0.37465113  1
  S  S10  1  0.40171075  0.75658613  0.83111459  1
  S  S11  1  0.69779813  0.45452106  0.53669351  1
  O  O12  1  0.59210110  0.07716237  0.73593241  1
  O  O13  1  0.73282576  0.10456464  0.33186960  1
  O  O14  1  0.26043591  0.84687930  0.11654225  1
  Ta  Ta15  1  0.41935715  0.97108024  0.42750782  1
  La  La16  1  0.92630446  0.96235710  0.93989575  1
  O  O17  1  0.03941637  0.34774673  0.97768486  1
  Li  Li18  1  0.57945925  0.44875526  0.45721057  1
  O  O19  1  0.09474730  0.91180241  0.54433477  1
  Dy  Dy20  1  0.42579287  0.46305695  0.92839235  1
  O  O21  1  0.56787241  0.65163672  0.30718520  1
  O  O22  1  0.29217562  0.30176070  0.54348940  1
  Mn  Mn23  1  0.92898190  0.25188267  0.65044153  1
  O  O24  1  0.75432497  0.55941224  0.76369393  1
  Li  Li25  1  0.93116927  0.66943383  0.25081199  1
