# generated using pymatgen
data_Li3ZnNi2BPt(OF)6
_symmetry_space_group_name_H-M   'P 1'
_cell_length_a   3.68944573
_cell_length_b   3.97485781
_cell_length_c   7.55654383
_cell_angle_alpha   90.32670593
_cell_angle_beta   89.76036072
_cell_angle_gamma   93.59413147
_symmetry_Int_Tables_number   1
_chemical_formula_structural   Li3ZnNi2BPt(OF)6
_chemical_formula_sum   'Li3 Zn1 Ni2 B1 Pt1 O6 F6'
_cell_volume   110.59631286
_cell_formula_units_Z   1
loop_
 _symmetry_equiv_pos_site_id
 _symmetry_equiv_pos_as_xyz
  1  'x, y, z'
loop_
 _atom_site_type_symbol
 _atom_site_label
 _atom_site_symmetry_multiplicity
 _atom_site_fract_x
 _atom_site_fract_y
 _atom_site_fract_z
 _atom_site_occupancy
  F  F0  1  0.15470348  0.06270561  0.16682222  1
  B  B1  1  0.94058847  0.86518681  0.05508330  1
  O  O2  1  0.71460116  0.10232174  0.46856877  1
  Ni  Ni3  1  0.71983314  0.60427320  0.43458062  1
  F  F4  1  0.22600399  0.59571421  0.43037266  1
  F  F5  1  0.72002757  0.64378679  0.17718250  1
  O  O6  1  0.72894210  0.06113570  0.94797838  1
  F  F7  1  0.14513350  0.64336145  0.96767092  1
  Ni  Ni8  1  0.71430463  0.08343049  0.71175319  1
  Li  Li9  1  0.21707568  0.09910002  0.43302649  1
  F  F10  1  0.71561199  0.58092856  0.68550396  1
  F  F11  1  0.23096247  0.09614000  0.70069736  1
  O  O12  1  0.98191029  0.01132741  0.22477239  1
  O  O13  1  0.48528662  0.47821772  0.21291888  1
  Li  Li14  1  0.98587412  0.74474096  0.45895195  1
  Li  Li15  1  0.50238395  0.74316478  0.96316558  1
  O  O16  1  0.48720521  0.00714175  0.71199572  1
  Pt  Pt17  1  0.48418134  0.24826153  0.46304655  1
  Zn  Zn18  1  0.98740363  0.25183752  0.96434557  1
  O  O19  1  0.99427128  0.47831559  0.69498241  1
