# generated using pymatgen
data_Os3Ru
_symmetry_space_group_name_H-M   'P 1'
_cell_length_a   5.20020992
_cell_length_b   5.20020992
_cell_length_c   25.66344034
_cell_angle_alpha   90.00000000
_cell_angle_beta   90.00000000
_cell_angle_gamma   120.00000000
_symmetry_Int_Tables_number   1
_chemical_formula_structural   Os3Ru
_chemical_formula_sum   'Os3 Ru1'
_cell_volume   601.01769494
_cell_formula_units_Z   1
loop_
 _symmetry_equiv_pos_site_id
 _symmetry_equiv_pos_as_xyz
  1  'x, y, z'
loop_
 _atom_site_type_symbol
 _atom_site_label
 _atom_site_symmetry_multiplicity
 _atom_site_fract_x
 _atom_site_fract_y
 _atom_site_fract_z
 _atom_site_occupancy
  Os  Os0  1  0.00000000  0.00000000  0.00000000  1
  Os  Os1  1  0.00000000  0.00000000  0.50000000  1
  Os  Os2  1  0.14812197  0.85187803  0.16046379  1
  Ru  Ru3  1  0.56779086  0.43220914  0.18273602  1
