# generated using pymatgen
data_ScAlRu
_symmetry_space_group_name_H-M   'P 1'
_cell_length_a   6.13707093
_cell_length_b   6.13707093
_cell_length_c   6.13707093
_cell_angle_alpha   90.00000000
_cell_angle_beta   90.00000000
_cell_angle_gamma   90.00000000
_symmetry_Int_Tables_number   1
_chemical_formula_structural   ScAlRu
_chemical_formula_sum   'Sc1 Al1 Ru1'
_cell_volume   231.14442772
_cell_formula_units_Z   1
loop_
 _symmetry_equiv_pos_site_id
 _symmetry_equiv_pos_as_xyz
  1  'x, y, z'
loop_
 _atom_site_type_symbol
 _atom_site_label
 _atom_site_symmetry_multiplicity
 _atom_site_fract_x
 _atom_site_fract_y
 _atom_site_fract_z
 _atom_site_occupancy
  Sc  Sc0  1  0.00000000  0.00000000  0.00000000  1
  Al  Al1  1  0.50000000  0.50000000  0.50000000  1
  Ru  Ru2  1  0.75000000  0.75000000  0.75000000  1
