# generated using pymatgen
data_TiAlP
_symmetry_space_group_name_H-M   'P 1'
_cell_length_a   2.88005965
_cell_length_b   2.88005965
_cell_length_c   18.48110771
_cell_angle_alpha   90.00000000
_cell_angle_beta   90.00000000
_cell_angle_gamma   120.00000000
_symmetry_Int_Tables_number   1
_chemical_formula_structural   TiAlP
_chemical_formula_sum   'Ti1 Al1 P1'
_cell_volume   132.75827319
_cell_formula_units_Z   1
loop_
 _symmetry_equiv_pos_site_id
 _symmetry_equiv_pos_as_xyz
  1  'x, y, z'
loop_
 _atom_site_type_symbol
 _atom_site_label
 _atom_site_symmetry_multiplicity
 _atom_site_fract_x
 _atom_site_fract_y
 _atom_site_fract_z
 _atom_site_occupancy
  P  P0  1  0.00000000  0.00000000  0.00000000  1
  Al  Al1  1  0.00000000  0.00000000  0.25000000  1
  Ti  Ti2  1  0.33333334  0.66666669  0.57969178  1
