# generated using pymatgen
data_TaTiAl2
_symmetry_space_group_name_H-M   'P 1'
_cell_length_a   3.40714483
_cell_length_b   3.40714483
_cell_length_c   9.47614609
_cell_angle_alpha   90.00000000
_cell_angle_beta   90.00000000
_cell_angle_gamma   90.00000000
_symmetry_Int_Tables_number   1
_chemical_formula_structural   TaTiAl2
_chemical_formula_sum   'Ta1 Ti1 Al2'
_cell_volume   110.00512983
_cell_formula_units_Z   1
loop_
 _symmetry_equiv_pos_site_id
 _symmetry_equiv_pos_as_xyz
  1  'x, y, z'
loop_
 _atom_site_type_symbol
 _atom_site_label
 _atom_site_symmetry_multiplicity
 _atom_site_fract_x
 _atom_site_fract_y
 _atom_site_fract_z
 _atom_site_occupancy
  Al  Al0  1  0.00000000  0.00000000  0.00000000  1
  Ta  Ta1  1  0.00000000  0.00000000  0.50000000  1
  Ti  Ti2  1  0.50000000  0.50000000  0.25936944  1
  Al  Al3  1  0.00000000  0.50000000  0.25459267  1
