# generated using pymatgen
data_ScMnFe
_symmetry_space_group_name_H-M   'P 1'
_cell_length_a   6.10139451
_cell_length_b   6.10139451
_cell_length_c   6.10139451
_cell_angle_alpha   90.00000000
_cell_angle_beta   90.00000000
_cell_angle_gamma   90.00000000
_symmetry_Int_Tables_number   1
_chemical_formula_structural   ScMnFe
_chemical_formula_sum   'Sc1 Mn1 Fe1'
_cell_volume   227.13670481
_cell_formula_units_Z   1
loop_
 _symmetry_equiv_pos_site_id
 _symmetry_equiv_pos_as_xyz
  1  'x, y, z'
loop_
 _atom_site_type_symbol
 _atom_site_label
 _atom_site_symmetry_multiplicity
 _atom_site_fract_x
 _atom_site_fract_y
 _atom_site_fract_z
 _atom_site_occupancy
  Sc  Sc0  1  0.00000000  0.00000000  0.00000000  1
  Fe  Fe1  1  0.00000000  0.50000000  0.50000000  1
  Mn  Mn2  1  0.25000000  0.25000000  0.25000000  1
