# generated using pymatgen
data_MnGaSe
_symmetry_space_group_name_H-M   'P 1'
_cell_length_a   12.38048503
_cell_length_b   12.38048503
_cell_length_c   12.38048503
_cell_angle_alpha   90.00000000
_cell_angle_beta   90.00000000
_cell_angle_gamma   90.00000000
_symmetry_Int_Tables_number   1
_chemical_formula_structural   MnGaSe
_chemical_formula_sum   'Mn1 Ga1 Se1'
_cell_volume   1897.63629452
_cell_formula_units_Z   1
loop_
 _symmetry_equiv_pos_site_id
 _symmetry_equiv_pos_as_xyz
  1  'x, y, z'
loop_
 _atom_site_type_symbol
 _atom_site_label
 _atom_site_symmetry_multiplicity
 _atom_site_fract_x
 _atom_site_fract_y
 _atom_site_fract_z
 _atom_site_occupancy
  Mn  Mn0  1  0.00000000  0.00000000  0.00000000  1
  Ga  Ga1  1  0.75000000  0.75000000  0.75000000  1
  Se  Se2  1  0.37918195  0.38046353  0.37674859  1
