# generated using pymatgen
data_Mn3(Al2C)4
_symmetry_space_group_name_H-M   'P 1'
_cell_length_a   4.84466576
_cell_length_b   4.84466576
_cell_length_c   55.28979479
_cell_angle_alpha   90.00000000
_cell_angle_beta   90.00000000
_cell_angle_gamma   120.00000000
_symmetry_Int_Tables_number   1
_chemical_formula_structural   Mn3(Al2C)4
_chemical_formula_sum   'Mn3 Al8 C4'
_cell_volume   1123.83680316
_cell_formula_units_Z   1
loop_
 _symmetry_equiv_pos_site_id
 _symmetry_equiv_pos_as_xyz
  1  'x, y, z'
loop_
 _atom_site_type_symbol
 _atom_site_label
 _atom_site_symmetry_multiplicity
 _atom_site_fract_x
 _atom_site_fract_y
 _atom_site_fract_z
 _atom_site_occupancy
  Mn  Mn0  1  0.00000000  0.00000000  0.00000000  1
  Mn  Mn1  1  0.00000000  0.00000000  0.50000000  1
  C  C2  1  0.00000000  0.00000000  0.05826639  1
  Mn  Mn3  1  0.00000000  0.00000000  0.13085095  1
  C  C4  1  0.00000000  0.00000000  0.13627999  1
  Al  Al5  1  0.00000000  0.00000000  0.16196798  1
  Al  Al6  1  0.00000000  0.00000000  0.20921689  1
  Al  Al7  1  0.00000000  0.00000000  0.21830030  1
  C  C8  1  0.00000000  0.00000000  0.25229419  1
  Al  Al9  1  0.00000000  0.00000000  0.26536965  1
  Al  Al10  1  0.00000000  0.00000000  0.33129666  1
  C  C11  1  0.00000000  0.00000000  0.31695970  1
  Al  Al12  1  0.50000000  0.00000000  0.00000000  1
  Al  Al13  1  0.44082162  0.55917838  0.14280954  1
  Al  Al14  1  0.44213161  0.55786839  0.26070722  1
