# generated using pymatgen
data_CeS
_symmetry_space_group_name_H-M   'P 1'
_cell_length_a   4.45011270
_cell_length_b   4.45011270
_cell_length_c   29.55443111
_cell_angle_alpha   90.00000000
_cell_angle_beta   90.00000000
_cell_angle_gamma   120.00000000
_symmetry_Int_Tables_number   1
_chemical_formula_structural   CeS
_chemical_formula_sum   'Ce1 S1'
_cell_volume   506.86844515
_cell_formula_units_Z   1
loop_
 _symmetry_equiv_pos_site_id
 _symmetry_equiv_pos_as_xyz
  1  'x, y, z'
loop_
 _atom_site_type_symbol
 _atom_site_label
 _atom_site_symmetry_multiplicity
 _atom_site_fract_x
 _atom_site_fract_y
 _atom_site_fract_z
 _atom_site_occupancy
  Ce  Ce0  1  0.00000000  0.00000000  0.67083249  1
  S  S1  1  0.17931842  0.82068158  0.06070327  1
