# generated using pymatgen
data_BaAl
_symmetry_space_group_name_H-M   'P 1'
_cell_length_a   6.53549184
_cell_length_b   6.53549184
_cell_length_c   7.82336654
_cell_angle_alpha   90.00000000
_cell_angle_beta   90.00000000
_cell_angle_gamma   120.00000000
_symmetry_Int_Tables_number   1
_chemical_formula_structural   BaAl
_chemical_formula_sum   'Ba1 Al1'
_cell_volume   289.38822962
_cell_formula_units_Z   1
loop_
 _symmetry_equiv_pos_site_id
 _symmetry_equiv_pos_as_xyz
  1  'x, y, z'
loop_
 _atom_site_type_symbol
 _atom_site_label
 _atom_site_symmetry_multiplicity
 _atom_site_fract_x
 _atom_site_fract_y
 _atom_site_fract_z
 _atom_site_occupancy
  Ba  Ba0  1  0.33333334  0.66666669  0.75000000  1
  Al  Al1  1  0.12929320  0.25858640  0.25000000  1
