# generated using pymatgen
data_TiAlCrNiC
_symmetry_space_group_name_H-M   'P 1'
_cell_length_a   4.13945890
_cell_length_b   4.13945890
_cell_length_c   32.59956136
_cell_angle_alpha   90.00000000
_cell_angle_beta   90.00000000
_cell_angle_gamma   120.00000000
_symmetry_Int_Tables_number   1
_chemical_formula_structural   TiAlCrNiC
_chemical_formula_sum   'Ti1 Al1 Cr1 Ni1 C1'
_cell_volume   483.75953382
_cell_formula_units_Z   1
loop_
 _symmetry_equiv_pos_site_id
 _symmetry_equiv_pos_as_xyz
  1  'x, y, z'
loop_
 _atom_site_type_symbol
 _atom_site_label
 _atom_site_symmetry_multiplicity
 _atom_site_fract_x
 _atom_site_fract_y
 _atom_site_fract_z
 _atom_site_occupancy
  Cr  Cr0  1  0.00000000  0.00000000  0.50000000  1
  C  C1  1  0.00000000  0.00000000  0.81698181  1
  Ti  Ti2  1  0.00000000  0.00000000  0.93819201  1
  Ni  Ni3  1  0.50000000  0.00000000  0.00000000  1
  Al  Al4  1  0.68867188  0.31132812  0.10097535  1
