# generated using pymatgen
data_FeGeW
_symmetry_space_group_name_H-M   'P 1'
_cell_length_a   4.32366734
_cell_length_b   4.32366734
_cell_length_c   26.65361353
_cell_angle_alpha   90.00000000
_cell_angle_beta   90.00000000
_cell_angle_gamma   120.00000000
_symmetry_Int_Tables_number   1
_chemical_formula_structural   FeGeW
_chemical_formula_sum   'Fe1 Ge1 W1'
_cell_volume   431.51040447
_cell_formula_units_Z   1
loop_
 _symmetry_equiv_pos_site_id
 _symmetry_equiv_pos_as_xyz
  1  'x, y, z'
loop_
 _atom_site_type_symbol
 _atom_site_label
 _atom_site_symmetry_multiplicity
 _atom_site_fract_x
 _atom_site_fract_y
 _atom_site_fract_z
 _atom_site_occupancy
  Ge  Ge0  1  0.00000000  0.00000000  0.70323842  1
  W  W1  1  0.50000000  0.00000000  0.50000000  1
  Fe  Fe2  1  0.14399870  0.85600130  0.08345674  1
