# generated using pymatgen
data_ZnNiRu
_symmetry_space_group_name_H-M   'P 1'
_cell_length_a   3.89445105
_cell_length_b   3.89445105
_cell_length_c   19.54347099
_cell_angle_alpha   90.00000000
_cell_angle_beta   90.00000000
_cell_angle_gamma   120.00000000
_symmetry_Int_Tables_number   1
_chemical_formula_structural   ZnNiRu
_chemical_formula_sum   'Zn1 Ni1 Ru1'
_cell_volume   256.69938560
_cell_formula_units_Z   1
loop_
 _symmetry_equiv_pos_site_id
 _symmetry_equiv_pos_as_xyz
  1  'x, y, z'
loop_
 _atom_site_type_symbol
 _atom_site_label
 _atom_site_symmetry_multiplicity
 _atom_site_fract_x
 _atom_site_fract_y
 _atom_site_fract_z
 _atom_site_occupancy
  Ru  Ru0  1  0.00000000  0.00000000  0.00000000  1
  Zn  Zn1  1  0.00000000  0.00000000  0.50000000  1
  Ni  Ni2  1  0.16118840  0.83881160  0.22133730  1
