# generated using pymatgen
data_WS
_symmetry_space_group_name_H-M   'P 1'
_cell_length_a   4.71756049
_cell_length_b   4.71756049
_cell_length_c   8.73144629
_cell_angle_alpha   90.00000000
_cell_angle_beta   90.00000000
_cell_angle_gamma   120.00000000
_symmetry_Int_Tables_number   1
_chemical_formula_structural   WS
_chemical_formula_sum   'W1 S1'
_cell_volume   168.28746701
_cell_formula_units_Z   1
loop_
 _symmetry_equiv_pos_site_id
 _symmetry_equiv_pos_as_xyz
  1  'x, y, z'
loop_
 _atom_site_type_symbol
 _atom_site_label
 _atom_site_symmetry_multiplicity
 _atom_site_fract_x
 _atom_site_fract_y
 _atom_site_fract_z
 _atom_site_occupancy
  W  W0  1  0.33333334  0.66666669  0.25000000  1
  S  S1  1  0.83370123  0.66740246  0.25000000  1
