# generated using pymatgen
data_Al9CrSiPd
_symmetry_space_group_name_H-M   'P 1'
_cell_length_a   5.07066965
_cell_length_b   5.07066965
_cell_length_c   48.88362487
_cell_angle_alpha   90.00000000
_cell_angle_beta   90.00000000
_cell_angle_gamma   120.00000000
_symmetry_Int_Tables_number   1
_chemical_formula_structural   Al9CrSiPd
_chemical_formula_sum   'Al9 Cr1 Si1 Pd1'
_cell_volume   1088.49056470
_cell_formula_units_Z   1
loop_
 _symmetry_equiv_pos_site_id
 _symmetry_equiv_pos_as_xyz
  1  'x, y, z'
loop_
 _atom_site_type_symbol
 _atom_site_label
 _atom_site_symmetry_multiplicity
 _atom_site_fract_x
 _atom_site_fract_y
 _atom_site_fract_z
 _atom_site_occupancy
  Cr  Cr0  1  0.00000000  0.00000000  0.00000000  1
  Pd  Pd1  1  0.00000000  0.00000000  0.50000000  1
  Al  Al2  1  0.00000000  0.00000000  0.05499169  1
  Al  Al3  1  0.00000000  0.00000000  0.10285406  1
  Al  Al4  1  0.00000000  0.00000000  0.18642148  1
  Al  Al5  1  0.00000000  0.00000000  0.22146451  1
  Al  Al6  1  0.00000000  0.00000000  0.23002022  1
  Si  Si7  1  0.00000000  0.00000000  0.27160266  1
  Al  Al8  1  0.00000000  0.00000000  0.29369317  1
  Al  Al9  1  0.00000000  0.00000000  0.36028581  1
  Al  Al10  1  0.50000000  0.00000000  0.00000000  1
  Al  Al11  1  0.14137307  0.85862693  0.13232021  1
