# generated using pymatgen
data_KSrSbO
_symmetry_space_group_name_H-M   'P 1'
_cell_length_a   8.50703596
_cell_length_b   8.50703596
_cell_length_c   8.50703596
_cell_angle_alpha   90.00000000
_cell_angle_beta   90.00000000
_cell_angle_gamma   90.00000000
_symmetry_Int_Tables_number   1
_chemical_formula_structural   KSrSbO
_chemical_formula_sum   'K1 Sr1 Sb1 O1'
_cell_volume   615.65130717
_cell_formula_units_Z   1
loop_
 _symmetry_equiv_pos_site_id
 _symmetry_equiv_pos_as_xyz
  1  'x, y, z'
loop_
 _atom_site_type_symbol
 _atom_site_label
 _atom_site_symmetry_multiplicity
 _atom_site_fract_x
 _atom_site_fract_y
 _atom_site_fract_z
 _atom_site_occupancy
  Sb  Sb0  1  0.00000000  0.00000000  0.00000000  1
  K  K1  1  0.50000000  0.50000000  0.50000000  1
  Sr  Sr2  1  0.25000000  0.25000000  0.25000000  1
  O  O3  1  0.48160377  0.00000000  0.00000000  1
