# generated using pymatgen
data_LuBiSe4
_symmetry_space_group_name_H-M   'P 1'
_cell_length_a   3.66662527
_cell_length_b   3.66662527
_cell_length_c   67.75718595
_cell_angle_alpha   90.00000000
_cell_angle_beta   90.00000000
_cell_angle_gamma   120.00000000
_symmetry_Int_Tables_number   1
_chemical_formula_structural   LuBiSe4
_chemical_formula_sum   'Lu1 Bi1 Se4'
_cell_volume   788.89471671
_cell_formula_units_Z   1
loop_
 _symmetry_equiv_pos_site_id
 _symmetry_equiv_pos_as_xyz
  1  'x, y, z'
loop_
 _atom_site_type_symbol
 _atom_site_label
 _atom_site_symmetry_multiplicity
 _atom_site_fract_x
 _atom_site_fract_y
 _atom_site_fract_z
 _atom_site_occupancy
  Bi  Bi0  1  0.00000000  0.00000000  0.00000000  1
  Lu  Lu1  1  0.00000000  0.00000000  0.50000000  1
  Se  Se2  1  0.00000000  0.00000000  0.08550255  1
  Se  Se3  1  0.00000000  0.00000000  0.17482200  1
  Se  Se4  1  0.00000000  0.00000000  0.27948157  1
  Se  Se5  1  0.00000000  0.00000000  0.36323005  1
