# generated using pymatgen
data_KNaCoSbO
_symmetry_space_group_name_H-M   'P 1'
_cell_length_a   8.10863104
_cell_length_b   8.10863104
_cell_length_c   8.10863104
_cell_angle_alpha   90.00000000
_cell_angle_beta   90.00000000
_cell_angle_gamma   90.00000000
_symmetry_Int_Tables_number   1
_chemical_formula_structural   KNaCoSbO
_chemical_formula_sum   'K1 Na1 Co1 Sb1 O1'
_cell_volume   533.14165791
_cell_formula_units_Z   1
loop_
 _symmetry_equiv_pos_site_id
 _symmetry_equiv_pos_as_xyz
  1  'x, y, z'
loop_
 _atom_site_type_symbol
 _atom_site_label
 _atom_site_symmetry_multiplicity
 _atom_site_fract_x
 _atom_site_fract_y
 _atom_site_fract_z
 _atom_site_occupancy
  Sb  Sb0  1  0.00000000  0.00000000  0.00000000  1
  Na  Na1  1  0.50000000  0.50000000  0.50000000  1
  Co  Co2  1  0.25000000  0.25000000  0.25000000  1
  K  K3  1  0.75000000  0.75000000  0.75000000  1
  O  O4  1  0.28249615  0.00000000  0.00000000  1
