# generated using pymatgen
data_KBiO
_symmetry_space_group_name_H-M   'P 1'
_cell_length_a   5.80642704
_cell_length_b   5.80642704
_cell_length_c   14.37907945
_cell_angle_alpha   90.00000000
_cell_angle_beta   90.00000000
_cell_angle_gamma   120.00000000
_symmetry_Int_Tables_number   1
_chemical_formula_structural   KBiO
_chemical_formula_sum   'K1 Bi1 O1'
_cell_volume   419.83598662
_cell_formula_units_Z   1
loop_
 _symmetry_equiv_pos_site_id
 _symmetry_equiv_pos_as_xyz
  1  'x, y, z'
loop_
 _atom_site_type_symbol
 _atom_site_label
 _atom_site_symmetry_multiplicity
 _atom_site_fract_x
 _atom_site_fract_y
 _atom_site_fract_z
 _atom_site_occupancy
  Bi  Bi0  1  0.00000000  0.00000000  0.00000000  1
  K  K1  1  0.00000000  0.00000000  0.50000000  1
  O  O2  1  0.52737460  0.47262540  0.29009138  1
