# generated using pymatgen
data_TiFe3Mo
_symmetry_space_group_name_H-M   'P 1'
_cell_length_a   3.50323545
_cell_length_b   3.50323545
_cell_length_c   8.49853840
_cell_angle_alpha   90.00000000
_cell_angle_beta   90.00000000
_cell_angle_gamma   90.00000000
_symmetry_Int_Tables_number   1
_chemical_formula_structural   TiFe3Mo
_chemical_formula_sum   'Ti1 Fe3 Mo1'
_cell_volume   104.29966075
_cell_formula_units_Z   1
loop_
 _symmetry_equiv_pos_site_id
 _symmetry_equiv_pos_as_xyz
  1  'x, y, z'
loop_
 _atom_site_type_symbol
 _atom_site_label
 _atom_site_symmetry_multiplicity
 _atom_site_fract_x
 _atom_site_fract_y
 _atom_site_fract_z
 _atom_site_occupancy
  Fe  Fe0  1  0.00000000  0.00000000  0.00000000  1
  Fe  Fe1  1  0.00000000  0.00000000  0.50000000  1
  Mo  Mo2  1  0.50000000  0.50000000  0.00000000  1
  Ti  Ti3  1  0.50000000  0.50000000  0.74474603  1
  Fe  Fe4  1  0.00000000  0.50000000  0.26132648  1
