# generated using pymatgen
data_InO3
_symmetry_space_group_name_H-M   'P 1'
_cell_length_a   3.20678860
_cell_length_b   3.20678860
_cell_length_c   15.57443886
_cell_angle_alpha   90.00000000
_cell_angle_beta   90.00000000
_cell_angle_gamma   120.00000000
_symmetry_Int_Tables_number   1
_chemical_formula_structural   InO3
_chemical_formula_sum   'In1 O3'
_cell_volume   138.70231271
_cell_formula_units_Z   1
loop_
 _symmetry_equiv_pos_site_id
 _symmetry_equiv_pos_as_xyz
  1  'x, y, z'
loop_
 _atom_site_type_symbol
 _atom_site_label
 _atom_site_symmetry_multiplicity
 _atom_site_fract_x
 _atom_site_fract_y
 _atom_site_fract_z
 _atom_site_occupancy
  In  In0  1  0.00000000  0.00000000  0.00000000  1
  O  O1  1  0.00000000  0.00000000  0.25000000  1
  O  O2  1  0.33333334  0.66666669  0.56941743  1
  O  O3  1  0.00827458  0.01654916  0.25000000  1
