# generated using pymatgen
data_TiNb(VC)2
_symmetry_space_group_name_H-M   'P 1'
_cell_length_a   3.00197355
_cell_length_b   3.00197355
_cell_length_c   49.77503585
_cell_angle_alpha   90.00000000
_cell_angle_beta   90.00000000
_cell_angle_gamma   120.00000000
_symmetry_Int_Tables_number   1
_chemical_formula_structural   TiNb(VC)2
_chemical_formula_sum   'Ti1 Nb1 V2 C2'
_cell_volume   388.46861342
_cell_formula_units_Z   1
loop_
 _symmetry_equiv_pos_site_id
 _symmetry_equiv_pos_as_xyz
  1  'x, y, z'
loop_
 _atom_site_type_symbol
 _atom_site_label
 _atom_site_symmetry_multiplicity
 _atom_site_fract_x
 _atom_site_fract_y
 _atom_site_fract_z
 _atom_site_occupancy
  V  V0  1  0.00000000  0.00000000  0.00000000  1
  V  V1  1  0.00000000  0.00000000  0.08440350  1
  C  C2  1  0.00000000  0.00000000  0.16406556  1
  C  C3  1  0.00000000  0.00000000  0.21098198  1
  Nb  Nb4  1  0.00000000  0.00000000  0.29347857  1
  Ti  Ti5  1  0.00000000  0.00000000  0.35267744  1
