# generated using pymatgen
data_GdO
_symmetry_space_group_name_H-M   'P 1'
_cell_length_a   4.20507069
_cell_length_b   4.20507069
_cell_length_c   17.74021641
_cell_angle_alpha   90.00000000
_cell_angle_beta   90.00000000
_cell_angle_gamma   120.00000000
_symmetry_Int_Tables_number   1
_chemical_formula_structural   GdO
_chemical_formula_sum   'Gd1 O1'
_cell_volume   271.66653679
_cell_formula_units_Z   1
loop_
 _symmetry_equiv_pos_site_id
 _symmetry_equiv_pos_as_xyz
  1  'x, y, z'
loop_
 _atom_site_type_symbol
 _atom_site_label
 _atom_site_symmetry_multiplicity
 _atom_site_fract_x
 _atom_site_fract_y
 _atom_site_fract_z
 _atom_site_occupancy
  Gd  Gd0  1  0.00000000  0.00000000  0.00000000  1
  O  O1  1  0.52014360  0.47985640  0.24347270  1
