# generated using pymatgen
data_U5Ge2Te
_symmetry_space_group_name_H-M   'P 1'
_cell_length_a   3.83249517
_cell_length_b   3.83249517
_cell_length_c   20.45411366
_cell_angle_alpha   90.00000000
_cell_angle_beta   90.00000000
_cell_angle_gamma   90.00000000
_symmetry_Int_Tables_number   1
_chemical_formula_structural   U5Ge2Te
_chemical_formula_sum   'U5 Ge2 Te1'
_cell_volume   300.43041445
_cell_formula_units_Z   1
loop_
 _symmetry_equiv_pos_site_id
 _symmetry_equiv_pos_as_xyz
  1  'x, y, z'
loop_
 _atom_site_type_symbol
 _atom_site_label
 _atom_site_symmetry_multiplicity
 _atom_site_fract_x
 _atom_site_fract_y
 _atom_site_fract_z
 _atom_site_occupancy
  Ge  Ge0  1  0.00000000  0.00000000  0.00000000  1
  U  U1  1  0.00000000  0.00000000  0.50000000  1
  U  U2  1  0.00000000  0.00000000  0.24318896  1
  U  U3  1  0.50000000  0.50000000  0.77221825  1
  Ge  Ge4  1  0.50000000  0.50000000  0.09935566  1
  U  U5  1  0.50000000  0.50000000  0.60469106  1
  Te  Te6  1  0.50000000  0.50000000  0.07827338  1
  U  U7  1  0.50000000  0.50000000  0.26737732  1
