# generated using pymatgen
data_Ho3MgInPb2
_symmetry_space_group_name_H-M   'P 1'
_cell_length_a   7.02448908
_cell_length_b   7.02448908
_cell_length_c   10.51461588
_cell_angle_alpha   90.00000000
_cell_angle_beta   90.00000000
_cell_angle_gamma   90.00000000
_symmetry_Int_Tables_number   1
_chemical_formula_structural   Ho3MgInPb2
_chemical_formula_sum   'Ho3 Mg1 In1 Pb2'
_cell_volume   518.82738960
_cell_formula_units_Z   1
loop_
 _symmetry_equiv_pos_site_id
 _symmetry_equiv_pos_as_xyz
  1  'x, y, z'
loop_
 _atom_site_type_symbol
 _atom_site_label
 _atom_site_symmetry_multiplicity
 _atom_site_fract_x
 _atom_site_fract_y
 _atom_site_fract_z
 _atom_site_occupancy
  Mg  Mg0  1  0.00000000  0.00000000  0.00000000  1
  Ho  Ho1  1  0.00000000  0.00000000  0.50000000  1
  Pb  Pb2  1  0.50000000  0.50000000  0.00000000  1
  Pb  Pb3  1  0.50000000  0.50000000  0.50000000  1
  Ho  Ho4  1  0.50000000  0.50000000  0.24821895  1
  Ho  Ho5  1  0.50000000  0.50000000  0.25594790  1
  In  In6  1  0.25179633  0.24032080  0.50000000  1
