# generated using pymatgen
data_SmS
_symmetry_space_group_name_H-M   'P 1'
_cell_length_a   7.02952237
_cell_length_b   7.02952237
_cell_length_c   10.86244057
_cell_angle_alpha   90.00000000
_cell_angle_beta   90.00000000
_cell_angle_gamma   90.00000000
_symmetry_Int_Tables_number   1
_chemical_formula_structural   SmS
_chemical_formula_sum   'Sm1 S1'
_cell_volume   536.75864610
_cell_formula_units_Z   1
loop_
 _symmetry_equiv_pos_site_id
 _symmetry_equiv_pos_as_xyz
  1  'x, y, z'
loop_
 _atom_site_type_symbol
 _atom_site_label
 _atom_site_symmetry_multiplicity
 _atom_site_fract_x
 _atom_site_fract_y
 _atom_site_fract_z
 _atom_site_occupancy
  Sm  Sm0  1  0.00000000  0.50000000  0.00000000  1
  S  S1  1  0.75120645  0.75120645  0.05320916  1
