# generated using pymatgen
data_TbAlVCo3Mo2
_symmetry_space_group_name_H-M   'P 1'
_cell_length_a   3.43626108
_cell_length_b   3.43626108
_cell_length_c   17.86773616
_cell_angle_alpha   90.00000000
_cell_angle_beta   90.00000000
_cell_angle_gamma   90.00000000
_symmetry_Int_Tables_number   1
_chemical_formula_structural   TbAlVCo3Mo2
_chemical_formula_sum   'Tb1 Al1 V1 Co3 Mo2'
_cell_volume   210.98026674
_cell_formula_units_Z   1
loop_
 _symmetry_equiv_pos_site_id
 _symmetry_equiv_pos_as_xyz
  1  'x, y, z'
loop_
 _atom_site_type_symbol
 _atom_site_label
 _atom_site_symmetry_multiplicity
 _atom_site_fract_x
 _atom_site_fract_y
 _atom_site_fract_z
 _atom_site_occupancy
  Co  Co0  1  0.00000000  0.00000000  0.00000000  1
  V  V1  1  0.00000000  0.00000000  0.50000000  1
  Tb  Tb2  1  0.50000000  0.50000000  0.25927726  1
  Co  Co3  1  0.50000000  0.50000000  0.24369344  1
  Co  Co4  1  0.50000000  0.50000000  0.25859794  1
  Mo  Mo5  1  0.50000000  0.50000000  0.24790307  1
  Mo  Mo6  1  0.50000000  0.50000000  0.25043470  1
  Al  Al7  1  0.00000000  0.50000000  0.22210660  1
