# generated using pymatgen
data_CeZn
_symmetry_space_group_name_H-M   'P 1'
_cell_length_a   5.71270609
_cell_length_b   5.71270609
_cell_length_c   7.56853144
_cell_angle_alpha   90.00000000
_cell_angle_beta   90.00000000
_cell_angle_gamma   120.00000000
_symmetry_Int_Tables_number   1
_chemical_formula_structural   CeZn
_chemical_formula_sum   'Ce1 Zn1'
_cell_volume   213.90750057
_cell_formula_units_Z   1
loop_
 _symmetry_equiv_pos_site_id
 _symmetry_equiv_pos_as_xyz
  1  'x, y, z'
loop_
 _atom_site_type_symbol
 _atom_site_label
 _atom_site_symmetry_multiplicity
 _atom_site_fract_x
 _atom_site_fract_y
 _atom_site_fract_z
 _atom_site_occupancy
  Ce  Ce0  1  0.33333334  0.66666669  0.25000000  1
  Zn  Zn1  1  0.85502373  0.71004745  0.25000000  1
