# generated using pymatgen
data_Np
_symmetry_space_group_name_H-M   'P 1'
_cell_length_a   1.98700882
_cell_length_b   4.48973145
_cell_length_c   12.15819346
_cell_angle_alpha   90.00000000
_cell_angle_beta   90.00000000
_cell_angle_gamma   90.00000000
_symmetry_Int_Tables_number   1
_chemical_formula_structural   Np
_chemical_formula_sum   Np1
_cell_volume   108.46489743
_cell_formula_units_Z   1
loop_
 _symmetry_equiv_pos_site_id
 _symmetry_equiv_pos_as_xyz
  1  'x, y, z'
loop_
 _atom_site_type_symbol
 _atom_site_label
 _atom_site_symmetry_multiplicity
 _atom_site_fract_x
 _atom_site_fract_y
 _atom_site_fract_z
 _atom_site_occupancy
  Np  Np0  1  0.98056348  0.25000000  0.95990090  1
