# generated using pymatgen
data_TbCrFe4Ni
_symmetry_space_group_name_H-M   'P 1'
_cell_length_a   4.65668132
_cell_length_b   4.65668132
_cell_length_c   39.29620104
_cell_angle_alpha   90.00000000
_cell_angle_beta   90.00000000
_cell_angle_gamma   120.00000000
_symmetry_Int_Tables_number   1
_chemical_formula_structural   TbCrFe4Ni
_chemical_formula_sum   'Tb1 Cr1 Fe4 Ni1'
_cell_volume   737.96239888
_cell_formula_units_Z   1
loop_
 _symmetry_equiv_pos_site_id
 _symmetry_equiv_pos_as_xyz
  1  'x, y, z'
loop_
 _atom_site_type_symbol
 _atom_site_label
 _atom_site_symmetry_multiplicity
 _atom_site_fract_x
 _atom_site_fract_y
 _atom_site_fract_z
 _atom_site_occupancy
  Cr  Cr0  1  0.00000000  0.00000000  0.50000000  1
  Fe  Fe1  1  0.00000000  0.00000000  0.11585067  1
  Fe  Fe2  1  0.00000000  0.00000000  0.23598894  1
  Tb  Tb3  1  0.00000000  0.00000000  0.57565464  1
  Ni  Ni4  1  0.50000000  0.00000000  0.00000000  1
  Fe  Fe5  1  0.49305672  0.50694328  0.13516718  1
  Fe  Fe6  1  0.16996743  0.83003257  0.25378299  1
