# generated using pymatgen
data_KThRuO
_symmetry_space_group_name_H-M   'P 1'
_cell_length_a   8.00737564
_cell_length_b   8.00737564
_cell_length_c   8.00737564
_cell_angle_alpha   90.00000000
_cell_angle_beta   90.00000000
_cell_angle_gamma   90.00000000
_symmetry_Int_Tables_number   1
_chemical_formula_structural   KThRuO
_chemical_formula_sum   'K1 Th1 Ru1 O1'
_cell_volume   513.41742853
_cell_formula_units_Z   1
loop_
 _symmetry_equiv_pos_site_id
 _symmetry_equiv_pos_as_xyz
  1  'x, y, z'
loop_
 _atom_site_type_symbol
 _atom_site_label
 _atom_site_symmetry_multiplicity
 _atom_site_fract_x
 _atom_site_fract_y
 _atom_site_fract_z
 _atom_site_occupancy
  Ru  Ru0  1  0.00000000  0.00000000  0.00000000  1
  Th  Th1  1  0.25000000  0.25000000  0.25000000  1
  K  K2  1  0.75000000  0.75000000  0.75000000  1
  O  O3  1  0.25621507  0.00000000  0.00000000  1
