# generated using pymatgen
data_UNi3Ru2
_symmetry_space_group_name_H-M   'P 1'
_cell_length_a   4.35705697
_cell_length_b   4.35705697
_cell_length_c   43.27178748
_cell_angle_alpha   90.00000000
_cell_angle_beta   90.00000000
_cell_angle_gamma   120.00000000
_symmetry_Int_Tables_number   1
_chemical_formula_structural   UNi3Ru2
_chemical_formula_sum   'U1 Ni3 Ru2'
_cell_volume   711.41324184
_cell_formula_units_Z   1
loop_
 _symmetry_equiv_pos_site_id
 _symmetry_equiv_pos_as_xyz
  1  'x, y, z'
loop_
 _atom_site_type_symbol
 _atom_site_label
 _atom_site_symmetry_multiplicity
 _atom_site_fract_x
 _atom_site_fract_y
 _atom_site_fract_z
 _atom_site_occupancy
  Ru  Ru0  1  0.00000000  0.00000000  0.50000000  1
  Ru  Ru1  1  0.00000000  0.00000000  0.10297765  1
  Ni  Ni2  1  0.00000000  0.00000000  0.16894825  1
  U  U3  1  0.00000000  0.00000000  0.29543402  1
  Ni  Ni4  1  0.47097542  0.00000000  0.50000000  1
  Ni  Ni5  1  0.14939860  0.85060140  0.23604043  1
