# generated using pymatgen
data_TiNi6
_symmetry_space_group_name_H-M   'P 1'
_cell_length_a   3.93229279
_cell_length_b   3.93229279
_cell_length_c   39.28172999
_cell_angle_alpha   90.00000000
_cell_angle_beta   90.00000000
_cell_angle_gamma   120.00000000
_symmetry_Int_Tables_number   1
_chemical_formula_structural   TiNi6
_chemical_formula_sum   'Ti1 Ni6'
_cell_volume   526.03292989
_cell_formula_units_Z   1
loop_
 _symmetry_equiv_pos_site_id
 _symmetry_equiv_pos_as_xyz
  1  'x, y, z'
loop_
 _atom_site_type_symbol
 _atom_site_label
 _atom_site_symmetry_multiplicity
 _atom_site_fract_x
 _atom_site_fract_y
 _atom_site_fract_z
 _atom_site_occupancy
  Ti  Ti0  1  0.00000000  0.00000000  0.50000000  1
  Ni  Ni1  1  0.00000000  0.00000000  0.10642026  1
  Ni  Ni2  1  0.00000000  0.00000000  0.17364545  1
  Ni  Ni3  1  0.00000000  0.00000000  0.30455903  1
  Ni  Ni4  1  0.00000000  0.00000000  0.57383288  1
  Ni  Ni5  1  0.50000000  0.00000000  0.00000000  1
  Ni  Ni6  1  0.84305947  0.15694053  0.24792618  1
