# generated using pymatgen
data_TbO2
_symmetry_space_group_name_H-M   'P 1'
_cell_length_a   6.27689875
_cell_length_b   6.27689875
_cell_length_c   13.36013811
_cell_angle_alpha   90.00000000
_cell_angle_beta   90.00000000
_cell_angle_gamma   120.00000000
_symmetry_Int_Tables_number   1
_chemical_formula_structural   TbO2
_chemical_formula_sum   'Tb1 O2'
_cell_volume   455.86035674
_cell_formula_units_Z   1
loop_
 _symmetry_equiv_pos_site_id
 _symmetry_equiv_pos_as_xyz
  1  'x, y, z'
loop_
 _atom_site_type_symbol
 _atom_site_label
 _atom_site_symmetry_multiplicity
 _atom_site_fract_x
 _atom_site_fract_y
 _atom_site_fract_z
 _atom_site_occupancy
  Tb  Tb0  1  0.00000000  0.00000000  0.00000000  1
  O  O1  1  0.17392332  0.00000000  0.50000000  1
  O  O2  1  0.49813013  0.50186987  0.07386051  1
