# generated using pymatgen
data_CeYN2
_symmetry_space_group_name_H-M   'P 1'
_cell_length_a   3.18187469
_cell_length_b   3.18187469
_cell_length_c   25.11706965
_cell_angle_alpha   90.00000000
_cell_angle_beta   90.00000000
_cell_angle_gamma   90.00000000
_symmetry_Int_Tables_number   1
_chemical_formula_structural   CeYN2
_chemical_formula_sum   'Ce1 Y1 N2'
_cell_volume   254.29341418
_cell_formula_units_Z   1
loop_
 _symmetry_equiv_pos_site_id
 _symmetry_equiv_pos_as_xyz
  1  'x, y, z'
loop_
 _atom_site_type_symbol
 _atom_site_label
 _atom_site_symmetry_multiplicity
 _atom_site_fract_x
 _atom_site_fract_y
 _atom_site_fract_z
 _atom_site_occupancy
  Y  Y0  1  0.00000000  0.00000000  0.00000000  1
  N  N1  1  0.00000000  0.50000000  0.25000000  1
  Ce  Ce2  1  0.00000000  0.00000000  0.34296501  1
  N  N3  1  0.00000000  0.50000000  0.41154166  1
