# generated using pymatgen
data_HoAlSi2
_symmetry_space_group_name_H-M   'P 1'
_cell_length_a   4.35703750
_cell_length_b   4.35703750
_cell_length_c   39.08279285
_cell_angle_alpha   90.00000000
_cell_angle_beta   90.00000000
_cell_angle_gamma   120.00000000
_symmetry_Int_Tables_number   1
_chemical_formula_structural   HoAlSi2
_chemical_formula_sum   'Ho1 Al1 Si2'
_cell_volume   642.53800137
_cell_formula_units_Z   1
loop_
 _symmetry_equiv_pos_site_id
 _symmetry_equiv_pos_as_xyz
  1  'x, y, z'
loop_
 _atom_site_type_symbol
 _atom_site_label
 _atom_site_symmetry_multiplicity
 _atom_site_fract_x
 _atom_site_fract_y
 _atom_site_fract_z
 _atom_site_occupancy
  Ho  Ho0  1  0.00000000  0.00000000  0.13976807  1
  Si  Si1  1  0.00000000  0.00000000  0.27096304  1
  Si  Si2  1  0.50000000  0.00000000  0.00000000  1
  Al  Al3  1  0.49276852  0.50723148  0.16138898  1
