# generated using pymatgen
data_BOs
_symmetry_space_group_name_H-M   'P 1'
_cell_length_a   4.36000650
_cell_length_b   4.36000650
_cell_length_c   7.54150533
_cell_angle_alpha   90.00000000
_cell_angle_beta   90.00000000
_cell_angle_gamma   120.00000000
_symmetry_Int_Tables_number   1
_chemical_formula_structural   BOs
_chemical_formula_sum   'B1 Os1'
_cell_volume   124.15463797
_cell_formula_units_Z   1
loop_
 _symmetry_equiv_pos_site_id
 _symmetry_equiv_pos_as_xyz
  1  'x, y, z'
loop_
 _atom_site_type_symbol
 _atom_site_label
 _atom_site_symmetry_multiplicity
 _atom_site_fract_x
 _atom_site_fract_y
 _atom_site_fract_z
 _atom_site_occupancy
  Os  Os0  1  0.00000000  0.00000000  0.00000000  1
  B  B1  1  0.32893901  0.37892693  0.25000000  1
