# generated using pymatgen
data_ScSe
_symmetry_space_group_name_H-M   'P 1'
_cell_length_a   4.87426276
_cell_length_b   4.87426276
_cell_length_c   25.10516771
_cell_angle_alpha   90.00000000
_cell_angle_beta   90.00000000
_cell_angle_gamma   120.00000000
_symmetry_Int_Tables_number   1
_chemical_formula_structural   ScSe
_chemical_formula_sum   'Sc1 Se1'
_cell_volume   516.54912897
_cell_formula_units_Z   1
loop_
 _symmetry_equiv_pos_site_id
 _symmetry_equiv_pos_as_xyz
  1  'x, y, z'
loop_
 _atom_site_type_symbol
 _atom_site_label
 _atom_site_symmetry_multiplicity
 _atom_site_fract_x
 _atom_site_fract_y
 _atom_site_fract_z
 _atom_site_occupancy
  Sc  Sc0  1  0.00000000  0.00000000  0.00000000  1
  Se  Se1  1  0.17609685  0.82390315  0.11556837  1
