# generated using pymatgen
data_YbGaPt
_symmetry_space_group_name_H-M   'P 1'
_cell_length_a   7.82344462
_cell_length_b   7.82344462
_cell_length_c   7.82344462
_cell_angle_alpha   90.00000000
_cell_angle_beta   90.00000000
_cell_angle_gamma   90.00000000
_symmetry_Int_Tables_number   1
_chemical_formula_structural   YbGaPt
_chemical_formula_sum   'Yb1 Ga1 Pt1'
_cell_volume   478.84398669
_cell_formula_units_Z   1
loop_
 _symmetry_equiv_pos_site_id
 _symmetry_equiv_pos_as_xyz
  1  'x, y, z'
loop_
 _atom_site_type_symbol
 _atom_site_label
 _atom_site_symmetry_multiplicity
 _atom_site_fract_x
 _atom_site_fract_y
 _atom_site_fract_z
 _atom_site_occupancy
  Pt  Pt0  1  0.00000000  0.00000000  0.00000000  1
  Yb  Yb1  1  0.25000000  0.25000000  0.25000000  1
  Ga  Ga2  1  0.25000000  0.00000000  0.50000000  1
