# generated using pymatgen
data_UTi3Al3SnC
_symmetry_space_group_name_H-M   'P 1'
_cell_length_a   3.43186018
_cell_length_b   3.43186018
_cell_length_c   19.65121564
_cell_angle_alpha   90.00000000
_cell_angle_beta   90.00000000
_cell_angle_gamma   90.00000000
_symmetry_Int_Tables_number   1
_chemical_formula_structural   UTi3Al3SnC
_chemical_formula_sum   'U1 Ti3 Al3 Sn1 C1'
_cell_volume   231.44542118
_cell_formula_units_Z   1
loop_
 _symmetry_equiv_pos_site_id
 _symmetry_equiv_pos_as_xyz
  1  'x, y, z'
loop_
 _atom_site_type_symbol
 _atom_site_label
 _atom_site_symmetry_multiplicity
 _atom_site_fract_x
 _atom_site_fract_y
 _atom_site_fract_z
 _atom_site_occupancy
  C  C0  1  0.00000000  0.00000000  0.00000000  1
  U  U1  1  0.00000000  0.00000000  0.50000000  1
  Al  Al2  1  0.00000000  0.00000000  0.76144807  1
  Al  Al3  1  0.00000000  0.00000000  0.88034386  1
  Ti  Ti4  1  0.50000000  0.50000000  0.34801973  1
  Ti  Ti5  1  0.50000000  0.50000000  0.83702439  1
  Sn  Sn6  1  0.50000000  0.50000000  0.88150475  1
  Ti  Ti7  1  0.50000000  0.50000000  0.10197826  1
  Al  Al8  1  0.50000000  0.50000000  0.22246754  1
