# generated using pymatgen
data_TiVGa3Ni4
_symmetry_space_group_name_H-M   'P 1'
_cell_length_a   3.82944834
_cell_length_b   3.82944834
_cell_length_c   46.01342596
_cell_angle_alpha   90.00000000
_cell_angle_beta   90.00000000
_cell_angle_gamma   120.00000000
_symmetry_Int_Tables_number   1
_chemical_formula_structural   TiVGa3Ni4
_chemical_formula_sum   'Ti1 V1 Ga3 Ni4'
_cell_volume   584.36962458
_cell_formula_units_Z   1
loop_
 _symmetry_equiv_pos_site_id
 _symmetry_equiv_pos_as_xyz
  1  'x, y, z'
loop_
 _atom_site_type_symbol
 _atom_site_label
 _atom_site_symmetry_multiplicity
 _atom_site_fract_x
 _atom_site_fract_y
 _atom_site_fract_z
 _atom_site_occupancy
  Ti  Ti0  1  0.00000000  0.00000000  0.00000000  1
  V  V1  1  0.00000000  0.00000000  0.50000000  1
  Ni  Ni2  1  0.00000000  0.00000000  0.04608887  1
  Ni  Ni3  1  0.00000000  0.00000000  0.10397325  1
  Ni  Ni4  1  0.00000000  0.00000000  0.18722823  1
  Ga  Ga5  1  0.00000000  0.00000000  0.20158558  1
  Ga  Ga6  1  0.00000000  0.00000000  0.24796343  1
  Ni  Ni7  1  0.00000000  0.00000000  0.30531193  1
  Ga  Ga8  1  0.00000000  0.00000000  0.42707150  1
