# generated using pymatgen
data_ScS
_symmetry_space_group_name_H-M   'P 1'
_cell_length_a   4.63756669
_cell_length_b   4.63756669
_cell_length_c   22.78195132
_cell_angle_alpha   90.00000000
_cell_angle_beta   90.00000000
_cell_angle_gamma   120.00000000
_symmetry_Int_Tables_number   1
_chemical_formula_structural   ScS
_chemical_formula_sum   'Sc1 S1'
_cell_volume   424.32819273
_cell_formula_units_Z   1
loop_
 _symmetry_equiv_pos_site_id
 _symmetry_equiv_pos_as_xyz
  1  'x, y, z'
loop_
 _atom_site_type_symbol
 _atom_site_label
 _atom_site_symmetry_multiplicity
 _atom_site_fract_x
 _atom_site_fract_y
 _atom_site_fract_z
 _atom_site_occupancy
  Sc  Sc0  1  0.00000000  0.00000000  0.00000000  1
  S  S1  1  0.18345847  0.81654153  0.10556480  1
