# generated using pymatgen
data_TbGa2Rh
_symmetry_space_group_name_H-M   'P 1'
_cell_length_a   8.56744538
_cell_length_b   8.56744538
_cell_length_c   8.56744538
_cell_angle_alpha   90.00000000
_cell_angle_beta   90.00000000
_cell_angle_gamma   90.00000000
_symmetry_Int_Tables_number   1
_chemical_formula_structural   TbGa2Rh
_chemical_formula_sum   'Tb1 Ga2 Rh1'
_cell_volume   628.86008953
_cell_formula_units_Z   1
loop_
 _symmetry_equiv_pos_site_id
 _symmetry_equiv_pos_as_xyz
  1  'x, y, z'
loop_
 _atom_site_type_symbol
 _atom_site_label
 _atom_site_symmetry_multiplicity
 _atom_site_fract_x
 _atom_site_fract_y
 _atom_site_fract_z
 _atom_site_occupancy
  Rh  Rh0  1  0.00000000  0.00000000  0.00000000  1
  Tb  Tb1  1  0.25000000  0.25000000  0.25000000  1
  Ga  Ga2  1  0.25000000  0.00000000  0.50000000  1
  Ga  Ga3  1  0.69756547  0.00000000  0.00000000  1
