# generated using pymatgen
data_NaAlF
_symmetry_space_group_name_H-M   'P 1'
_cell_length_a   4.31665363
_cell_length_b   4.31665363
_cell_length_c   19.21345114
_cell_angle_alpha   90.00000000
_cell_angle_beta   90.00000000
_cell_angle_gamma   120.00000000
_symmetry_Int_Tables_number   1
_chemical_formula_structural   NaAlF
_chemical_formula_sum   'Na1 Al1 F1'
_cell_volume   310.04905790
_cell_formula_units_Z   1
loop_
 _symmetry_equiv_pos_site_id
 _symmetry_equiv_pos_as_xyz
  1  'x, y, z'
loop_
 _atom_site_type_symbol
 _atom_site_label
 _atom_site_symmetry_multiplicity
 _atom_site_fract_x
 _atom_site_fract_y
 _atom_site_fract_z
 _atom_site_occupancy
  Al  Al0  1  0.00000000  0.00000000  0.00000000  1
  Na  Na1  1  0.00000000  0.00000000  0.50000000  1
  F  F2  1  0.50190322  0.49809678  0.20290326  1
