# generated using pymatgen
data_CsMnVCoNi2
_symmetry_space_group_name_H-M   'P 1'
_cell_length_a   3.86667701
_cell_length_b   3.86667701
_cell_length_c   40.32795037
_cell_angle_alpha   90.00000000
_cell_angle_beta   90.00000000
_cell_angle_gamma   120.00000000
_symmetry_Int_Tables_number   1
_chemical_formula_structural   CsMnVCoNi2
_chemical_formula_sum   'Cs1 Mn1 V1 Co1 Ni2'
_cell_volume   522.17079104
_cell_formula_units_Z   1
loop_
 _symmetry_equiv_pos_site_id
 _symmetry_equiv_pos_as_xyz
  1  'x, y, z'
loop_
 _atom_site_type_symbol
 _atom_site_label
 _atom_site_symmetry_multiplicity
 _atom_site_fract_x
 _atom_site_fract_y
 _atom_site_fract_z
 _atom_site_occupancy
  V  V0  1  0.00000000  0.00000000  0.00000000  1
  Mn  Mn1  1  0.00000000  0.00000000  0.50000000  1
  Ni  Ni2  1  0.00000000  0.00000000  0.12487976  1
  Cs  Cs3  1  0.00000000  0.00000000  0.16639976  1
  Co  Co4  1  0.00000000  0.00000000  0.26364711  1
  Ni  Ni5  1  0.00000000  0.00000000  0.56571599  1
