# generated using pymatgen
data_NaFeBiRuO
_symmetry_space_group_name_H-M   'P 1'
_cell_length_a   8.33208016
_cell_length_b   8.33208016
_cell_length_c   8.33208016
_cell_angle_alpha   90.00000000
_cell_angle_beta   90.00000000
_cell_angle_gamma   90.00000000
_symmetry_Int_Tables_number   1
_chemical_formula_structural   NaFeBiRuO
_chemical_formula_sum   'Na1 Fe1 Bi1 Ru1 O1'
_cell_volume   578.44266603
_cell_formula_units_Z   1
loop_
 _symmetry_equiv_pos_site_id
 _symmetry_equiv_pos_as_xyz
  1  'x, y, z'
loop_
 _atom_site_type_symbol
 _atom_site_label
 _atom_site_symmetry_multiplicity
 _atom_site_fract_x
 _atom_site_fract_y
 _atom_site_fract_z
 _atom_site_occupancy
  Bi  Bi0  1  0.00000000  0.00000000  0.00000000  1
  Na  Na1  1  0.50000000  0.50000000  0.50000000  1
  Fe  Fe2  1  0.25000000  0.25000000  0.25000000  1
  Ru  Ru3  1  0.75000000  0.75000000  0.75000000  1
  O  O4  1  0.28345310  0.00000000  0.00000000  1
