# generated using pymatgen
data_BiCl
_symmetry_space_group_name_H-M   'P 1'
_cell_length_a   6.09158942
_cell_length_b   6.09158942
_cell_length_c   45.52357156
_cell_angle_alpha   90.00000000
_cell_angle_beta   90.00000000
_cell_angle_gamma   120.00000000
_symmetry_Int_Tables_number   1
_chemical_formula_structural   BiCl
_chemical_formula_sum   'Bi1 Cl1'
_cell_volume   1462.94569698
_cell_formula_units_Z   1
loop_
 _symmetry_equiv_pos_site_id
 _symmetry_equiv_pos_as_xyz
  1  'x, y, z'
loop_
 _atom_site_type_symbol
 _atom_site_label
 _atom_site_symmetry_multiplicity
 _atom_site_fract_x
 _atom_site_fract_y
 _atom_site_fract_z
 _atom_site_occupancy
  Bi  Bi0  1  0.00000000  0.00000000  0.64710201  1
  Cl  Cl1  1  0.74391384  0.00000000  0.25000000  1
