# generated using pymatgen
data_AlFe
_symmetry_space_group_name_H-M   'P 1'
_cell_length_a   5.23084726
_cell_length_b   5.23084726
_cell_length_c   7.69301300
_cell_angle_alpha   90.00000000
_cell_angle_beta   90.00000000
_cell_angle_gamma   120.00000000
_symmetry_Int_Tables_number   1
_chemical_formula_structural   AlFe
_chemical_formula_sum   'Al1 Fe1'
_cell_volume   182.29349659
_cell_formula_units_Z   1
loop_
 _symmetry_equiv_pos_site_id
 _symmetry_equiv_pos_as_xyz
  1  'x, y, z'
loop_
 _atom_site_type_symbol
 _atom_site_label
 _atom_site_symmetry_multiplicity
 _atom_site_fract_x
 _atom_site_fract_y
 _atom_site_fract_z
 _atom_site_occupancy
  Fe  Fe0  1  0.00000000  0.00000000  0.00000000  1
  Al  Al1  1  0.17236854  0.35190875  0.25000000  1
