# generated using pymatgen
data_YbGeIr2
_symmetry_space_group_name_H-M   'P 1'
_cell_length_a   8.55233535
_cell_length_b   8.55233535
_cell_length_c   8.55233535
_cell_angle_alpha   90.00000000
_cell_angle_beta   90.00000000
_cell_angle_gamma   90.00000000
_symmetry_Int_Tables_number   1
_chemical_formula_structural   YbGeIr2
_chemical_formula_sum   'Yb1 Ge1 Ir2'
_cell_volume   625.53867542
_cell_formula_units_Z   1
loop_
 _symmetry_equiv_pos_site_id
 _symmetry_equiv_pos_as_xyz
  1  'x, y, z'
loop_
 _atom_site_type_symbol
 _atom_site_label
 _atom_site_symmetry_multiplicity
 _atom_site_fract_x
 _atom_site_fract_y
 _atom_site_fract_z
 _atom_site_occupancy
  Ir  Ir0  1  0.00000000  0.00000000  0.00000000  1
  Yb  Yb1  1  0.25000000  0.25000000  0.25000000  1
  Ir  Ir2  1  0.25000000  0.00000000  0.50000000  1
  Ge  Ge3  1  0.69614908  0.00000000  0.00000000  1
