# generated using pymatgen
data_AlC
_symmetry_space_group_name_H-M   'P 1'
_cell_length_a   1.94163222
_cell_length_b   1.94163222
_cell_length_c   19.19569040
_cell_angle_alpha   90.00000000
_cell_angle_beta   90.00000000
_cell_angle_gamma   120.00000000
_symmetry_Int_Tables_number   1
_chemical_formula_structural   AlC
_chemical_formula_sum   'Al1 C1'
_cell_volume   62.67124294
_cell_formula_units_Z   1
loop_
 _symmetry_equiv_pos_site_id
 _symmetry_equiv_pos_as_xyz
  1  'x, y, z'
loop_
 _atom_site_type_symbol
 _atom_site_label
 _atom_site_symmetry_multiplicity
 _atom_site_fract_x
 _atom_site_fract_y
 _atom_site_fract_z
 _atom_site_occupancy
  C  C0  1  0.00000000  0.00000000  0.00000000  1
  Al  Al1  1  0.33333334  0.66666669  0.57046084  1
