# generated using pymatgen
data_NaSb
_symmetry_space_group_name_H-M   'P 1'
_cell_length_a   6.15570789
_cell_length_b   6.15570789
_cell_length_c   6.15570789
_cell_angle_alpha   90.00000000
_cell_angle_beta   90.00000000
_cell_angle_gamma   90.00000000
_symmetry_Int_Tables_number   1
_chemical_formula_structural   NaSb
_chemical_formula_sum   'Na1 Sb1'
_cell_volume   233.25663595
_cell_formula_units_Z   1
loop_
 _symmetry_equiv_pos_site_id
 _symmetry_equiv_pos_as_xyz
  1  'x, y, z'
loop_
 _atom_site_type_symbol
 _atom_site_label
 _atom_site_symmetry_multiplicity
 _atom_site_fract_x
 _atom_site_fract_y
 _atom_site_fract_z
 _atom_site_occupancy
  Sb  Sb0  1  0.00000000  0.00000000  0.00000000  1
  Na  Na1  1  0.50000000  0.50000000  0.50000000  1
