# generated using pymatgen
data_NaBiS
_symmetry_space_group_name_H-M   'P 1'
_cell_length_a   6.93763075
_cell_length_b   6.93763075
_cell_length_c   18.80805837
_cell_angle_alpha   90.00000000
_cell_angle_beta   90.00000000
_cell_angle_gamma   120.00000000
_symmetry_Int_Tables_number   1
_chemical_formula_structural   NaBiS
_chemical_formula_sum   'Na1 Bi1 S1'
_cell_volume   783.96551317
_cell_formula_units_Z   1
loop_
 _symmetry_equiv_pos_site_id
 _symmetry_equiv_pos_as_xyz
  1  'x, y, z'
loop_
 _atom_site_type_symbol
 _atom_site_label
 _atom_site_symmetry_multiplicity
 _atom_site_fract_x
 _atom_site_fract_y
 _atom_site_fract_z
 _atom_site_occupancy
  Bi  Bi0  1  0.00000000  0.00000000  0.00000000  1
  Na  Na1  1  0.00000000  0.00000000  0.50000000  1
  S  S2  1  0.19350727  0.80649273  0.09828168  1
