# generated using pymatgen
data_ErC
_symmetry_space_group_name_H-M   'P 1'
_cell_length_a   3.45096270
_cell_length_b   2.19636234
_cell_length_c   6.41532608
_cell_angle_alpha   90.00000000
_cell_angle_beta   90.00000000
_cell_angle_gamma   90.00000000
_symmetry_Int_Tables_number   1
_chemical_formula_structural   ErC
_chemical_formula_sum   'Er1 C1'
_cell_volume   48.62537799
_cell_formula_units_Z   1
loop_
 _symmetry_equiv_pos_site_id
 _symmetry_equiv_pos_as_xyz
  1  'x, y, z'
loop_
 _atom_site_type_symbol
 _atom_site_label
 _atom_site_symmetry_multiplicity
 _atom_site_fract_x
 _atom_site_fract_y
 _atom_site_fract_z
 _atom_site_occupancy
  Er  Er0  1  0.82036078  0.25000000  0.05326728  1
  C  C1  1  0.96833910  0.25000000  0.62539743  1
