# generated using pymatgen
data_Ta(Ti2Be)2
_symmetry_space_group_name_H-M   'P 1'
_cell_length_a   3.90705653
_cell_length_b   3.90705653
_cell_length_c   39.92020761
_cell_angle_alpha   90.00000000
_cell_angle_beta   90.00000000
_cell_angle_gamma   120.00000000
_symmetry_Int_Tables_number   1
_chemical_formula_structural   Ta(Ti2Be)2
_chemical_formula_sum   'Ta1 Ti4 Be2'
_cell_volume   527.74340390
_cell_formula_units_Z   1
loop_
 _symmetry_equiv_pos_site_id
 _symmetry_equiv_pos_as_xyz
  1  'x, y, z'
loop_
 _atom_site_type_symbol
 _atom_site_label
 _atom_site_symmetry_multiplicity
 _atom_site_fract_x
 _atom_site_fract_y
 _atom_site_fract_z
 _atom_site_occupancy
  Ti  Ti0  1  0.00000000  0.00000000  0.00000000  1
  Ti  Ti1  1  0.00000000  0.00000000  0.50000000  1
  Be  Be2  1  0.00000000  0.00000000  0.10105306  1
  Ta  Ta3  1  0.00000000  0.00000000  0.19649380  1
  Ti  Ti4  1  0.00000000  0.00000000  0.29451672  1
  Ti  Ti5  1  0.00000000  0.00000000  0.37888946  1
  Be  Be6  1  0.16563104  0.83436896  0.24565405  1
