# generated using pymatgen
data_TaTiMnCrMoC4
_symmetry_space_group_name_H-M   'P 1'
_cell_length_a   3.55014980
_cell_length_b   3.55014980
_cell_length_c   52.21063709
_cell_angle_alpha   90.00000000
_cell_angle_beta   90.00000000
_cell_angle_gamma   120.00000000
_symmetry_Int_Tables_number   1
_chemical_formula_structural   TaTiMnCrMoC4
_chemical_formula_sum   'Ta1 Ti1 Mn1 Cr1 Mo1 C4'
_cell_volume   569.87943052
_cell_formula_units_Z   1
loop_
 _symmetry_equiv_pos_site_id
 _symmetry_equiv_pos_as_xyz
  1  'x, y, z'
loop_
 _atom_site_type_symbol
 _atom_site_label
 _atom_site_symmetry_multiplicity
 _atom_site_fract_x
 _atom_site_fract_y
 _atom_site_fract_z
 _atom_site_occupancy
  Mn  Mn0  1  0.00000000  0.00000000  0.00000000  1
  Mo  Mo1  1  0.00000000  0.00000000  0.50000000  1
  C  C2  1  0.00000000  0.00000000  0.07773762  1
  C  C3  1  0.00000000  0.00000000  0.12501871  1
  Ti  Ti4  1  0.00000000  0.00000000  0.14871045  1
  C  C5  1  0.00000000  0.00000000  0.24614459  1
  Cr  Cr6  1  0.00000000  0.00000000  0.25096907  1
  C  C7  1  0.00000000  0.00000000  0.31614018  1
  Ta  Ta8  1  0.00000000  0.00000000  0.37093664  1
