# generated using pymatgen
data_Cs2NaLi2FeF2
_symmetry_space_group_name_H-M   'P 1'
_cell_length_a   5.67205700
_cell_length_b   5.67205700
_cell_length_c   37.81962686
_cell_angle_alpha   90.00000000
_cell_angle_beta   90.00000000
_cell_angle_gamma   120.00000000
_symmetry_Int_Tables_number   1
_chemical_formula_structural   Cs2NaLi2FeF2
_chemical_formula_sum   'Cs2 Na1 Li2 Fe1 F2'
_cell_volume   1053.72927136
_cell_formula_units_Z   1
loop_
 _symmetry_equiv_pos_site_id
 _symmetry_equiv_pos_as_xyz
  1  'x, y, z'
loop_
 _atom_site_type_symbol
 _atom_site_label
 _atom_site_symmetry_multiplicity
 _atom_site_fract_x
 _atom_site_fract_y
 _atom_site_fract_z
 _atom_site_occupancy
  Fe  Fe0  1  0.00000000  0.00000000  0.00000000  1
  Na  Na1  1  0.00000000  0.00000000  0.50000000  1
  Cs  Cs2  1  0.00000000  0.00000000  0.08655803  1
  Cs  Cs3  1  0.00000000  0.00000000  0.16496139  1
  Li  Li4  1  0.00000000  0.00000000  0.26262216  1
  Li  Li5  1  0.00000000  0.00000000  0.34144354  1
  F  F6  1  0.20041966  0.79958034  0.26819185  1
  F  F7  1  0.44628571  0.55371429  0.34731419  1
