# generated using pymatgen
data_YGa2
_symmetry_space_group_name_H-M   'P 1'
_cell_length_a   3.71044601
_cell_length_b   3.71044601
_cell_length_c   24.01072195
_cell_angle_alpha   90.00000000
_cell_angle_beta   90.00000000
_cell_angle_gamma   90.00000000
_symmetry_Int_Tables_number   1
_chemical_formula_structural   YGa2
_chemical_formula_sum   'Y1 Ga2'
_cell_volume   330.56544312
_cell_formula_units_Z   1
loop_
 _symmetry_equiv_pos_site_id
 _symmetry_equiv_pos_as_xyz
  1  'x, y, z'
loop_
 _atom_site_type_symbol
 _atom_site_label
 _atom_site_symmetry_multiplicity
 _atom_site_fract_x
 _atom_site_fract_y
 _atom_site_fract_z
 _atom_site_occupancy
  Y  Y0  1  0.00000000  0.00000000  0.00000000  1
  Ga  Ga1  1  0.00000000  0.50000000  0.10653283  1
  Ga  Ga2  1  0.00000000  0.50000000  0.38761347  1
