# generated using pymatgen
data_HfAs
_symmetry_space_group_name_H-M   'P 1'
_cell_length_a   2.66354475
_cell_length_b   2.66354475
_cell_length_c   16.63185313
_cell_angle_alpha   90.00000000
_cell_angle_beta   90.00000000
_cell_angle_gamma   120.00000000
_symmetry_Int_Tables_number   1
_chemical_formula_structural   HfAs
_chemical_formula_sum   'Hf1 As1'
_cell_volume   102.18596950
_cell_formula_units_Z   1
loop_
 _symmetry_equiv_pos_site_id
 _symmetry_equiv_pos_as_xyz
  1  'x, y, z'
loop_
 _atom_site_type_symbol
 _atom_site_label
 _atom_site_symmetry_multiplicity
 _atom_site_fract_x
 _atom_site_fract_y
 _atom_site_fract_z
 _atom_site_occupancy
  As  As0  1  0.00000000  0.00000000  0.00000000  1
  Hf  Hf1  1  0.33333334  0.66666669  0.41454225  1
