# generated using pymatgen
data_Ta2Nb4Al
_symmetry_space_group_name_H-M   'P 1'
_cell_length_a   4.39076848
_cell_length_b   4.39076848
_cell_length_c   49.69592784
_cell_angle_alpha   90.00000000
_cell_angle_beta   90.00000000
_cell_angle_gamma   120.00000000
_symmetry_Int_Tables_number   1
_chemical_formula_structural   Ta2Nb4Al
_chemical_formula_sum   'Ta2 Nb4 Al1'
_cell_volume   829.72181758
_cell_formula_units_Z   1
loop_
 _symmetry_equiv_pos_site_id
 _symmetry_equiv_pos_as_xyz
  1  'x, y, z'
loop_
 _atom_site_type_symbol
 _atom_site_label
 _atom_site_symmetry_multiplicity
 _atom_site_fract_x
 _atom_site_fract_y
 _atom_site_fract_z
 _atom_site_occupancy
  Nb  Nb0  1  0.00000000  0.00000000  0.00000000  1
  Al  Al1  1  0.00000000  0.00000000  0.50000000  1
  Nb  Nb2  1  0.00000000  0.00000000  0.14618472  1
  Nb  Nb3  1  0.00000000  0.00000000  0.25454749  1
  Ta  Ta4  1  0.00000000  0.00000000  0.59447437  1
  Nb  Nb5  1  0.00000000  0.00000000  0.92713965  1
  Ta  Ta6  1  0.17981872  0.82018128  0.24576423  1
