# generated using pymatgen
data_Al2NiMo
_symmetry_space_group_name_H-M   'P 1'
_cell_length_a   2.97282117
_cell_length_b   2.97282117
_cell_length_c   12.17962585
_cell_angle_alpha   90.00000000
_cell_angle_beta   90.00000000
_cell_angle_gamma   90.00000000
_symmetry_Int_Tables_number   1
_chemical_formula_structural   Al2NiMo
_chemical_formula_sum   'Al2 Ni1 Mo1'
_cell_volume   107.63946152
_cell_formula_units_Z   1
loop_
 _symmetry_equiv_pos_site_id
 _symmetry_equiv_pos_as_xyz
  1  'x, y, z'
loop_
 _atom_site_type_symbol
 _atom_site_label
 _atom_site_symmetry_multiplicity
 _atom_site_fract_x
 _atom_site_fract_y
 _atom_site_fract_z
 _atom_site_occupancy
  Al  Al0  1  0.00000000  0.00000000  0.00000000  1
  Ni  Ni1  1  0.00000000  0.00000000  0.50000000  1
  Mo  Mo2  1  0.50000000  0.50000000  0.24958688  1
  Al  Al3  1  0.00000000  0.50000000  0.24471220  1
